
---------- Begin Simulation Statistics ----------
sim_seconds                                  0.092897                       # Number of seconds simulated
sim_ticks                                 92897442000                       # Number of ticks simulated
final_tick                                92897442000                       # Number of ticks from beginning of simulation (restored from checkpoints and never reset)
sim_freq                                 1000000000000                       # Frequency of simulated ticks
host_inst_rate                                1624091                       # Simulator instruction rate (inst/s)
host_op_rate                                  2679472                       # Simulator op (including micro ops) rate (op/s)
host_tick_rate                             3370157291                       # Simulator tick rate (ticks/s)
host_mem_usage                                 670024                       # Number of bytes of host memory used
host_seconds                                    27.56                       # Real time elapsed on the host
sim_insts                                    44767600                       # Number of instructions simulated
sim_ops                                      73858898                       # Number of ops (including micro ops) simulated
system.voltage_domain.voltage                       1                       # Voltage in Volts
system.clk_domain.clock                          1000                       # Clock period in ticks
system.mem_ctrls.pwrStateResidencyTicks::UNDEFINED  92897442000                       # Cumulative time (in ticks) in various power states
system.mem_ctrls.bytes_read::cpu.inst           48192                       # Number of bytes read from this memory
system.mem_ctrls.bytes_read::cpu.data          958528                       # Number of bytes read from this memory
system.mem_ctrls.bytes_read::total            1006720                       # Number of bytes read from this memory
system.mem_ctrls.bytes_inst_read::cpu.inst        48192                       # Number of instructions bytes read from this memory
system.mem_ctrls.bytes_inst_read::total         48192                       # Number of instructions bytes read from this memory
system.mem_ctrls.bytes_written::writebacks       634176                       # Number of bytes written to this memory
system.mem_ctrls.bytes_written::total          634176                       # Number of bytes written to this memory
system.mem_ctrls.num_reads::cpu.inst              753                       # Number of read requests responded to by this memory
system.mem_ctrls.num_reads::cpu.data            14977                       # Number of read requests responded to by this memory
system.mem_ctrls.num_reads::total               15730                       # Number of read requests responded to by this memory
system.mem_ctrls.num_writes::writebacks          9909                       # Number of write requests responded to by this memory
system.mem_ctrls.num_writes::total               9909                       # Number of write requests responded to by this memory
system.mem_ctrls.bw_read::cpu.inst             518766                       # Total read bandwidth from this memory (bytes/s)
system.mem_ctrls.bw_read::cpu.data           10318131                       # Total read bandwidth from this memory (bytes/s)
system.mem_ctrls.bw_read::total              10836897                       # Total read bandwidth from this memory (bytes/s)
system.mem_ctrls.bw_inst_read::cpu.inst        518766                       # Instruction read bandwidth from this memory (bytes/s)
system.mem_ctrls.bw_inst_read::total           518766                       # Instruction read bandwidth from this memory (bytes/s)
system.mem_ctrls.bw_write::writebacks         6826625                       # Write bandwidth from this memory (bytes/s)
system.mem_ctrls.bw_write::total              6826625                       # Write bandwidth from this memory (bytes/s)
system.mem_ctrls.bw_total::writebacks         6826625                       # Total bandwidth to/from this memory (bytes/s)
system.mem_ctrls.bw_total::cpu.inst            518766                       # Total bandwidth to/from this memory (bytes/s)
system.mem_ctrls.bw_total::cpu.data          10318131                       # Total bandwidth to/from this memory (bytes/s)
system.mem_ctrls.bw_total::total             17663522                       # Total bandwidth to/from this memory (bytes/s)
system.pwrStateResidencyTicks::UNDEFINED  92897442000                       # Cumulative time (in ticks) in various power states
system.cpu_voltage_domain.voltage                   1                       # Voltage in Volts
system.cpu_clk_domain.clock                       500                       # Clock period in ticks
system.cpu.dtb.walker.pwrStateResidencyTicks::UNDEFINED  92897442000                       # Cumulative time (in ticks) in various power states
system.cpu.dtb.rdAccesses                    20998403                       # TLB accesses on read requests
system.cpu.dtb.wrAccesses                     5824776                       # TLB accesses on write requests
system.cpu.dtb.rdMisses                           232                       # TLB misses on read requests
system.cpu.dtb.wrMisses                           111                       # TLB misses on write requests
system.cpu.apic_clk_domain.clock                 8000                       # Clock period in ticks
system.cpu.interrupts.pwrStateResidencyTicks::UNDEFINED  92897442000                       # Cumulative time (in ticks) in various power states
system.cpu.itb.walker.pwrStateResidencyTicks::UNDEFINED  92897442000                       # Cumulative time (in ticks) in various power states
system.cpu.itb.rdAccesses                           0                       # TLB accesses on read requests
system.cpu.itb.wrAccesses                    59428522                       # TLB accesses on write requests
system.cpu.itb.rdMisses                             0                       # TLB misses on read requests
system.cpu.itb.wrMisses                            78                       # TLB misses on write requests
system.cpu.workload.numSyscalls                    25                       # Number of system calls
system.cpu.pwrStateResidencyTicks::ON     92897442000                       # Cumulative time (in ticks) in various power states
system.cpu.numCycles                        185794884                       # number of cpu cycles simulated
system.cpu.numWorkItemsStarted                      0                       # number of work items this cpu started
system.cpu.numWorkItemsCompleted                    0                       # number of work items this cpu completed
system.cpu.committedInsts                    44767600                       # Number of instructions committed
system.cpu.committedOps                      73858898                       # Number of ops (including micro ops) committed
system.cpu.num_int_alu_accesses              73334921                       # Number of integer alu accesses
system.cpu.num_fp_alu_accesses                   4306                       # Number of float alu accesses
system.cpu.num_vec_alu_accesses                     0                       # Number of vector alu accesses
system.cpu.num_func_calls                      945812                       # number of times a function call or return occured
system.cpu.num_conditional_control_insts      4246118                       # number of instructions that are conditional controls
system.cpu.num_int_insts                     73334921                       # number of integer instructions
system.cpu.num_fp_insts                          4306                       # number of float instructions
system.cpu.num_vec_insts                            0                       # number of vector instructions
system.cpu.num_int_register_reads           164564256                       # number of times the integer registers were read
system.cpu.num_int_register_writes           64004149                       # number of times the integer registers were written
system.cpu.num_fp_register_reads                 6398                       # number of times the floating registers were read
system.cpu.num_fp_register_writes                3197                       # number of times the floating registers were written
system.cpu.num_vec_register_reads                   0                       # number of times the vector registers were read
system.cpu.num_vec_register_writes                  0                       # number of times the vector registers were written
system.cpu.num_cc_register_reads             27729350                       # number of times the CC registers were read
system.cpu.num_cc_register_writes            24993551                       # number of times the CC registers were written
system.cpu.num_mem_refs                      26823172                       # number of memory refs
system.cpu.num_load_insts                    20998396                       # Number of load instructions
system.cpu.num_store_insts                    5824776                       # Number of store instructions
system.cpu.num_idle_cycles                          0                       # Number of idle cycles
system.cpu.num_busy_cycles                  185794884                       # Number of busy cycles
system.cpu.not_idle_fraction                        1                       # Percentage of non-idle cycles
system.cpu.idle_fraction                            0                       # Percentage of idle cycles
system.cpu.Branches                           5689975                       # Number of branches fetched
system.cpu.op_class::No_OpClass                177072      0.24%      0.24% # Class of executed instruction
system.cpu.op_class::IntAlu                  45851855     62.08%     62.32% # Class of executed instruction
system.cpu.op_class::IntMult                       15      0.00%     62.32% # Class of executed instruction
system.cpu.op_class::IntDiv                   1004199      1.36%     63.68% # Class of executed instruction
system.cpu.op_class::FloatAdd                     132      0.00%     63.68% # Class of executed instruction
system.cpu.op_class::FloatCmp                       0      0.00%     63.68% # Class of executed instruction
system.cpu.op_class::FloatCvt                       0      0.00%     63.68% # Class of executed instruction
system.cpu.op_class::FloatMult                      0      0.00%     63.68% # Class of executed instruction
system.cpu.op_class::FloatMultAcc                   0      0.00%     63.68% # Class of executed instruction
system.cpu.op_class::FloatDiv                       0      0.00%     63.68% # Class of executed instruction
system.cpu.op_class::FloatMisc                      0      0.00%     63.68% # Class of executed instruction
system.cpu.op_class::FloatSqrt                      0      0.00%     63.68% # Class of executed instruction
system.cpu.op_class::SimdAdd                      348      0.00%     63.68% # Class of executed instruction
system.cpu.op_class::SimdAddAcc                     0      0.00%     63.68% # Class of executed instruction
system.cpu.op_class::SimdAlu                      682      0.00%     63.68% # Class of executed instruction
system.cpu.op_class::SimdCmp                        0      0.00%     63.68% # Class of executed instruction
system.cpu.op_class::SimdCvt                      770      0.00%     63.68% # Class of executed instruction
system.cpu.op_class::SimdMisc                     524      0.00%     63.68% # Class of executed instruction
system.cpu.op_class::SimdMult                       0      0.00%     63.68% # Class of executed instruction
system.cpu.op_class::SimdMultAcc                    0      0.00%     63.68% # Class of executed instruction
system.cpu.op_class::SimdShift                    129      0.00%     63.68% # Class of executed instruction
system.cpu.op_class::SimdShiftAcc                   0      0.00%     63.68% # Class of executed instruction
system.cpu.op_class::SimdSqrt                       0      0.00%     63.68% # Class of executed instruction
system.cpu.op_class::SimdFloatAdd                   0      0.00%     63.68% # Class of executed instruction
system.cpu.op_class::SimdFloatAlu                   0      0.00%     63.68% # Class of executed instruction
system.cpu.op_class::SimdFloatCmp                   0      0.00%     63.68% # Class of executed instruction
system.cpu.op_class::SimdFloatCvt                   0      0.00%     63.68% # Class of executed instruction
system.cpu.op_class::SimdFloatDiv                   0      0.00%     63.68% # Class of executed instruction
system.cpu.op_class::SimdFloatMisc                  0      0.00%     63.68% # Class of executed instruction
system.cpu.op_class::SimdFloatMult                  0      0.00%     63.68% # Class of executed instruction
system.cpu.op_class::SimdFloatMultAcc               0      0.00%     63.68% # Class of executed instruction
system.cpu.op_class::SimdFloatSqrt                  0      0.00%     63.68% # Class of executed instruction
system.cpu.op_class::MemRead                 20997424     28.43%     92.11% # Class of executed instruction
system.cpu.op_class::MemWrite                 5824086      7.89%    100.00% # Class of executed instruction
system.cpu.op_class::FloatMemRead                 972      0.00%    100.00% # Class of executed instruction
system.cpu.op_class::FloatMemWrite                690      0.00%    100.00% # Class of executed instruction
system.cpu.op_class::IprAccess                      0      0.00%    100.00% # Class of executed instruction
system.cpu.op_class::InstPrefetch                   0      0.00%    100.00% # Class of executed instruction
system.cpu.op_class::total                   73858898                       # Class of executed instruction
system.cpu.dcache.tags.pwrStateResidencyTicks::UNDEFINED  92897442000                       # Cumulative time (in ticks) in various power states
system.cpu.dcache.tags.tagsinuse           127.958358                       # Cycle average of tags in use
system.cpu.dcache.tags.total_refs            26823179                       # Total number of references to valid blocks.
system.cpu.dcache.tags.sampled_refs             66525                       # Sample count of references to valid blocks.
system.cpu.dcache.tags.avg_refs            403.204495                       # Average number of references to valid blocks.
system.cpu.dcache.tags.warmup_cycle            759000                       # Cycle when the warmup percentage was hit.
system.cpu.dcache.tags.occ_blocks::cpu.data   127.958358                       # Average occupied blocks per requestor
system.cpu.dcache.tags.occ_percent::cpu.data     0.999675                       # Average percentage of cache occupancy
system.cpu.dcache.tags.occ_percent::total     0.999675                       # Average percentage of cache occupancy
system.cpu.dcache.tags.occ_task_id_blocks::1024          128                       # Occupied blocks per task id
system.cpu.dcache.tags.age_task_id_blocks_1024::0           12                       # Occupied blocks per task id
system.cpu.dcache.tags.age_task_id_blocks_1024::1           39                       # Occupied blocks per task id
system.cpu.dcache.tags.age_task_id_blocks_1024::2           40                       # Occupied blocks per task id
system.cpu.dcache.tags.age_task_id_blocks_1024::3           37                       # Occupied blocks per task id
system.cpu.dcache.tags.occ_task_id_percent::1024            1                       # Percentage of cache occupancy per task id
system.cpu.dcache.tags.tag_accesses          53712883                       # Number of tag accesses
system.cpu.dcache.tags.data_accesses         53712883                       # Number of data accesses
system.cpu.dcache.pwrStateResidencyTicks::UNDEFINED  92897442000                       # Cumulative time (in ticks) in various power states
system.cpu.dcache.ReadReq_hits::cpu.data     20939959                       # number of ReadReq hits
system.cpu.dcache.ReadReq_hits::total        20939959                       # number of ReadReq hits
system.cpu.dcache.WriteReq_hits::cpu.data      5789999                       # number of WriteReq hits
system.cpu.dcache.WriteReq_hits::total        5789999                       # number of WriteReq hits
system.cpu.dcache.demand_hits::cpu.data      26729958                       # number of demand (read+write) hits
system.cpu.dcache.demand_hits::total         26729958                       # number of demand (read+write) hits
system.cpu.dcache.overall_hits::cpu.data     26729958                       # number of overall hits
system.cpu.dcache.overall_hits::total        26729958                       # number of overall hits
system.cpu.dcache.ReadReq_misses::cpu.data        58444                       # number of ReadReq misses
system.cpu.dcache.ReadReq_misses::total         58444                       # number of ReadReq misses
system.cpu.dcache.WriteReq_misses::cpu.data        34777                       # number of WriteReq misses
system.cpu.dcache.WriteReq_misses::total        34777                       # number of WriteReq misses
system.cpu.dcache.demand_misses::cpu.data        93221                       # number of demand (read+write) misses
system.cpu.dcache.demand_misses::total          93221                       # number of demand (read+write) misses
system.cpu.dcache.overall_misses::cpu.data        93221                       # number of overall misses
system.cpu.dcache.overall_misses::total         93221                       # number of overall misses
system.cpu.dcache.ReadReq_miss_latency::cpu.data   4657471500                       # number of ReadReq miss cycles
system.cpu.dcache.ReadReq_miss_latency::total   4657471500                       # number of ReadReq miss cycles
system.cpu.dcache.WriteReq_miss_latency::cpu.data   1939194000                       # number of WriteReq miss cycles
system.cpu.dcache.WriteReq_miss_latency::total   1939194000                       # number of WriteReq miss cycles
system.cpu.dcache.demand_miss_latency::cpu.data   6596665500                       # number of demand (read+write) miss cycles
system.cpu.dcache.demand_miss_latency::total   6596665500                       # number of demand (read+write) miss cycles
system.cpu.dcache.overall_miss_latency::cpu.data   6596665500                       # number of overall miss cycles
system.cpu.dcache.overall_miss_latency::total   6596665500                       # number of overall miss cycles
system.cpu.dcache.ReadReq_accesses::cpu.data     20998403                       # number of ReadReq accesses(hits+misses)
system.cpu.dcache.ReadReq_accesses::total     20998403                       # number of ReadReq accesses(hits+misses)
system.cpu.dcache.WriteReq_accesses::cpu.data      5824776                       # number of WriteReq accesses(hits+misses)
system.cpu.dcache.WriteReq_accesses::total      5824776                       # number of WriteReq accesses(hits+misses)
system.cpu.dcache.demand_accesses::cpu.data     26823179                       # number of demand (read+write) accesses
system.cpu.dcache.demand_accesses::total     26823179                       # number of demand (read+write) accesses
system.cpu.dcache.overall_accesses::cpu.data     26823179                       # number of overall (read+write) accesses
system.cpu.dcache.overall_accesses::total     26823179                       # number of overall (read+write) accesses
system.cpu.dcache.ReadReq_miss_rate::cpu.data     0.002783                       # miss rate for ReadReq accesses
system.cpu.dcache.ReadReq_miss_rate::total     0.002783                       # miss rate for ReadReq accesses
system.cpu.dcache.WriteReq_miss_rate::cpu.data     0.005971                       # miss rate for WriteReq accesses
system.cpu.dcache.WriteReq_miss_rate::total     0.005971                       # miss rate for WriteReq accesses
system.cpu.dcache.demand_miss_rate::cpu.data     0.003475                       # miss rate for demand accesses
system.cpu.dcache.demand_miss_rate::total     0.003475                       # miss rate for demand accesses
system.cpu.dcache.overall_miss_rate::cpu.data     0.003475                       # miss rate for overall accesses
system.cpu.dcache.overall_miss_rate::total     0.003475                       # miss rate for overall accesses
system.cpu.dcache.ReadReq_avg_miss_latency::cpu.data 79691.183013                       # average ReadReq miss latency
system.cpu.dcache.ReadReq_avg_miss_latency::total 79691.183013                       # average ReadReq miss latency
system.cpu.dcache.WriteReq_avg_miss_latency::cpu.data 55760.818932                       # average WriteReq miss latency
system.cpu.dcache.WriteReq_avg_miss_latency::total 55760.818932                       # average WriteReq miss latency
system.cpu.dcache.demand_avg_miss_latency::cpu.data 70763.728130                       # average overall miss latency
system.cpu.dcache.demand_avg_miss_latency::total 70763.728130                       # average overall miss latency
system.cpu.dcache.overall_avg_miss_latency::cpu.data 70763.728130                       # average overall miss latency
system.cpu.dcache.overall_avg_miss_latency::total 70763.728130                       # average overall miss latency
system.cpu.dcache.blocked_cycles::no_mshrs            0                       # number of cycles access was blocked
system.cpu.dcache.blocked_cycles::no_targets            0                       # number of cycles access was blocked
system.cpu.dcache.blocked::no_mshrs                 0                       # number of cycles access was blocked
system.cpu.dcache.blocked::no_targets               0                       # number of cycles access was blocked
system.cpu.dcache.avg_blocked_cycles::no_mshrs          nan                       # average number of cycles each access was blocked
system.cpu.dcache.avg_blocked_cycles::no_targets          nan                       # average number of cycles each access was blocked
system.cpu.dcache.writebacks::writebacks        59866                       # number of writebacks
system.cpu.dcache.writebacks::total             59866                       # number of writebacks
system.cpu.dcache.ReadReq_mshr_misses::cpu.data        58444                       # number of ReadReq MSHR misses
system.cpu.dcache.ReadReq_mshr_misses::total        58444                       # number of ReadReq MSHR misses
system.cpu.dcache.WriteReq_mshr_misses::cpu.data        34777                       # number of WriteReq MSHR misses
system.cpu.dcache.WriteReq_mshr_misses::total        34777                       # number of WriteReq MSHR misses
system.cpu.dcache.demand_mshr_misses::cpu.data        93221                       # number of demand (read+write) MSHR misses
system.cpu.dcache.demand_mshr_misses::total        93221                       # number of demand (read+write) MSHR misses
system.cpu.dcache.overall_mshr_misses::cpu.data        93221                       # number of overall MSHR misses
system.cpu.dcache.overall_mshr_misses::total        93221                       # number of overall MSHR misses
system.cpu.dcache.ReadReq_mshr_miss_latency::cpu.data   4599027500                       # number of ReadReq MSHR miss cycles
system.cpu.dcache.ReadReq_mshr_miss_latency::total   4599027500                       # number of ReadReq MSHR miss cycles
system.cpu.dcache.WriteReq_mshr_miss_latency::cpu.data   1904417000                       # number of WriteReq MSHR miss cycles
system.cpu.dcache.WriteReq_mshr_miss_latency::total   1904417000                       # number of WriteReq MSHR miss cycles
system.cpu.dcache.demand_mshr_miss_latency::cpu.data   6503444500                       # number of demand (read+write) MSHR miss cycles
system.cpu.dcache.demand_mshr_miss_latency::total   6503444500                       # number of demand (read+write) MSHR miss cycles
system.cpu.dcache.overall_mshr_miss_latency::cpu.data   6503444500                       # number of overall MSHR miss cycles
system.cpu.dcache.overall_mshr_miss_latency::total   6503444500                       # number of overall MSHR miss cycles
system.cpu.dcache.ReadReq_mshr_miss_rate::cpu.data     0.002783                       # mshr miss rate for ReadReq accesses
system.cpu.dcache.ReadReq_mshr_miss_rate::total     0.002783                       # mshr miss rate for ReadReq accesses
system.cpu.dcache.WriteReq_mshr_miss_rate::cpu.data     0.005971                       # mshr miss rate for WriteReq accesses
system.cpu.dcache.WriteReq_mshr_miss_rate::total     0.005971                       # mshr miss rate for WriteReq accesses
system.cpu.dcache.demand_mshr_miss_rate::cpu.data     0.003475                       # mshr miss rate for demand accesses
system.cpu.dcache.demand_mshr_miss_rate::total     0.003475                       # mshr miss rate for demand accesses
system.cpu.dcache.overall_mshr_miss_rate::cpu.data     0.003475                       # mshr miss rate for overall accesses
system.cpu.dcache.overall_mshr_miss_rate::total     0.003475                       # mshr miss rate for overall accesses
system.cpu.dcache.ReadReq_avg_mshr_miss_latency::cpu.data 78691.183013                       # average ReadReq mshr miss latency
system.cpu.dcache.ReadReq_avg_mshr_miss_latency::total 78691.183013                       # average ReadReq mshr miss latency
system.cpu.dcache.WriteReq_avg_mshr_miss_latency::cpu.data 54760.818932                       # average WriteReq mshr miss latency
system.cpu.dcache.WriteReq_avg_mshr_miss_latency::total 54760.818932                       # average WriteReq mshr miss latency
system.cpu.dcache.demand_avg_mshr_miss_latency::cpu.data 69763.728130                       # average overall mshr miss latency
system.cpu.dcache.demand_avg_mshr_miss_latency::total 69763.728130                       # average overall mshr miss latency
system.cpu.dcache.overall_avg_mshr_miss_latency::cpu.data 69763.728130                       # average overall mshr miss latency
system.cpu.dcache.overall_avg_mshr_miss_latency::total 69763.728130                       # average overall mshr miss latency
system.cpu.dcache.replacements                  66397                       # number of replacements
system.cpu.dtb_walker_cache.tags.pwrStateResidencyTicks::UNDEFINED  92897442000                       # Cumulative time (in ticks) in various power states
system.cpu.dtb_walker_cache.tags.tagsinuse            0                       # Cycle average of tags in use
system.cpu.dtb_walker_cache.tags.total_refs            0                       # Total number of references to valid blocks.
system.cpu.dtb_walker_cache.tags.sampled_refs            0                       # Sample count of references to valid blocks.
system.cpu.dtb_walker_cache.tags.avg_refs          nan                       # Average number of references to valid blocks.
system.cpu.dtb_walker_cache.tags.warmup_cycle            0                       # Cycle when the warmup percentage was hit.
system.cpu.dtb_walker_cache.tags.tag_accesses            0                       # Number of tag accesses
system.cpu.dtb_walker_cache.tags.data_accesses            0                       # Number of data accesses
system.cpu.dtb_walker_cache.pwrStateResidencyTicks::UNDEFINED  92897442000                       # Cumulative time (in ticks) in various power states
system.cpu.dtb_walker_cache.blocked_cycles::no_mshrs            0                       # number of cycles access was blocked
system.cpu.dtb_walker_cache.blocked_cycles::no_targets            0                       # number of cycles access was blocked
system.cpu.dtb_walker_cache.blocked::no_mshrs            0                       # number of cycles access was blocked
system.cpu.dtb_walker_cache.blocked::no_targets            0                       # number of cycles access was blocked
system.cpu.dtb_walker_cache.avg_blocked_cycles::no_mshrs          nan                       # average number of cycles each access was blocked
system.cpu.dtb_walker_cache.avg_blocked_cycles::no_targets          nan                       # average number of cycles each access was blocked
system.cpu.dtb_walker_cache.replacements            0                       # number of replacements
system.cpu.icache.tags.pwrStateResidencyTicks::UNDEFINED  92897442000                       # Cumulative time (in ticks) in various power states
system.cpu.icache.tags.tagsinuse           127.951236                       # Cycle average of tags in use
system.cpu.icache.tags.total_refs            59428522                       # Total number of references to valid blocks.
system.cpu.icache.tags.sampled_refs               948                       # Sample count of references to valid blocks.
system.cpu.icache.tags.avg_refs          62688.314346                       # Average number of references to valid blocks.
system.cpu.icache.tags.warmup_cycle            439000                       # Cycle when the warmup percentage was hit.
system.cpu.icache.tags.occ_blocks::cpu.inst   127.951236                       # Average occupied blocks per requestor
system.cpu.icache.tags.occ_percent::cpu.inst     0.999619                       # Average percentage of cache occupancy
system.cpu.icache.tags.occ_percent::total     0.999619                       # Average percentage of cache occupancy
system.cpu.icache.tags.occ_task_id_blocks::1024          128                       # Occupied blocks per task id
system.cpu.icache.tags.age_task_id_blocks_1024::0           18                       # Occupied blocks per task id
system.cpu.icache.tags.age_task_id_blocks_1024::1           48                       # Occupied blocks per task id
system.cpu.icache.tags.age_task_id_blocks_1024::4           62                       # Occupied blocks per task id
system.cpu.icache.tags.occ_task_id_percent::1024            1                       # Percentage of cache occupancy per task id
system.cpu.icache.tags.tag_accesses         118857992                       # Number of tag accesses
system.cpu.icache.tags.data_accesses        118857992                       # Number of data accesses
system.cpu.icache.pwrStateResidencyTicks::UNDEFINED  92897442000                       # Cumulative time (in ticks) in various power states
system.cpu.icache.ReadReq_hits::cpu.inst     59427574                       # number of ReadReq hits
system.cpu.icache.ReadReq_hits::total        59427574                       # number of ReadReq hits
system.cpu.icache.demand_hits::cpu.inst      59427574                       # number of demand (read+write) hits
system.cpu.icache.demand_hits::total         59427574                       # number of demand (read+write) hits
system.cpu.icache.overall_hits::cpu.inst     59427574                       # number of overall hits
system.cpu.icache.overall_hits::total        59427574                       # number of overall hits
system.cpu.icache.ReadReq_misses::cpu.inst          948                       # number of ReadReq misses
system.cpu.icache.ReadReq_misses::total           948                       # number of ReadReq misses
system.cpu.icache.demand_misses::cpu.inst          948                       # number of demand (read+write) misses
system.cpu.icache.demand_misses::total            948                       # number of demand (read+write) misses
system.cpu.icache.overall_misses::cpu.inst          948                       # number of overall misses
system.cpu.icache.overall_misses::total           948                       # number of overall misses
system.cpu.icache.ReadReq_miss_latency::cpu.inst    143596000                       # number of ReadReq miss cycles
system.cpu.icache.ReadReq_miss_latency::total    143596000                       # number of ReadReq miss cycles
system.cpu.icache.demand_miss_latency::cpu.inst    143596000                       # number of demand (read+write) miss cycles
system.cpu.icache.demand_miss_latency::total    143596000                       # number of demand (read+write) miss cycles
system.cpu.icache.overall_miss_latency::cpu.inst    143596000                       # number of overall miss cycles
system.cpu.icache.overall_miss_latency::total    143596000                       # number of overall miss cycles
system.cpu.icache.ReadReq_accesses::cpu.inst     59428522                       # number of ReadReq accesses(hits+misses)
system.cpu.icache.ReadReq_accesses::total     59428522                       # number of ReadReq accesses(hits+misses)
system.cpu.icache.demand_accesses::cpu.inst     59428522                       # number of demand (read+write) accesses
system.cpu.icache.demand_accesses::total     59428522                       # number of demand (read+write) accesses
system.cpu.icache.overall_accesses::cpu.inst     59428522                       # number of overall (read+write) accesses
system.cpu.icache.overall_accesses::total     59428522                       # number of overall (read+write) accesses
system.cpu.icache.ReadReq_miss_rate::cpu.inst     0.000016                       # miss rate for ReadReq accesses
system.cpu.icache.ReadReq_miss_rate::total     0.000016                       # miss rate for ReadReq accesses
system.cpu.icache.demand_miss_rate::cpu.inst     0.000016                       # miss rate for demand accesses
system.cpu.icache.demand_miss_rate::total     0.000016                       # miss rate for demand accesses
system.cpu.icache.overall_miss_rate::cpu.inst     0.000016                       # miss rate for overall accesses
system.cpu.icache.overall_miss_rate::total     0.000016                       # miss rate for overall accesses
system.cpu.icache.ReadReq_avg_miss_latency::cpu.inst 151472.573840                       # average ReadReq miss latency
system.cpu.icache.ReadReq_avg_miss_latency::total 151472.573840                       # average ReadReq miss latency
system.cpu.icache.demand_avg_miss_latency::cpu.inst 151472.573840                       # average overall miss latency
system.cpu.icache.demand_avg_miss_latency::total 151472.573840                       # average overall miss latency
system.cpu.icache.overall_avg_miss_latency::cpu.inst 151472.573840                       # average overall miss latency
system.cpu.icache.overall_avg_miss_latency::total 151472.573840                       # average overall miss latency
system.cpu.icache.blocked_cycles::no_mshrs            0                       # number of cycles access was blocked
system.cpu.icache.blocked_cycles::no_targets            0                       # number of cycles access was blocked
system.cpu.icache.blocked::no_mshrs                 0                       # number of cycles access was blocked
system.cpu.icache.blocked::no_targets               0                       # number of cycles access was blocked
system.cpu.icache.avg_blocked_cycles::no_mshrs          nan                       # average number of cycles each access was blocked
system.cpu.icache.avg_blocked_cycles::no_targets          nan                       # average number of cycles each access was blocked
system.cpu.icache.writebacks::writebacks          820                       # number of writebacks
system.cpu.icache.writebacks::total               820                       # number of writebacks
system.cpu.icache.ReadReq_mshr_misses::cpu.inst          948                       # number of ReadReq MSHR misses
system.cpu.icache.ReadReq_mshr_misses::total          948                       # number of ReadReq MSHR misses
system.cpu.icache.demand_mshr_misses::cpu.inst          948                       # number of demand (read+write) MSHR misses
system.cpu.icache.demand_mshr_misses::total          948                       # number of demand (read+write) MSHR misses
system.cpu.icache.overall_mshr_misses::cpu.inst          948                       # number of overall MSHR misses
system.cpu.icache.overall_mshr_misses::total          948                       # number of overall MSHR misses
system.cpu.icache.ReadReq_mshr_miss_latency::cpu.inst    142648000                       # number of ReadReq MSHR miss cycles
system.cpu.icache.ReadReq_mshr_miss_latency::total    142648000                       # number of ReadReq MSHR miss cycles
system.cpu.icache.demand_mshr_miss_latency::cpu.inst    142648000                       # number of demand (read+write) MSHR miss cycles
system.cpu.icache.demand_mshr_miss_latency::total    142648000                       # number of demand (read+write) MSHR miss cycles
system.cpu.icache.overall_mshr_miss_latency::cpu.inst    142648000                       # number of overall MSHR miss cycles
system.cpu.icache.overall_mshr_miss_latency::total    142648000                       # number of overall MSHR miss cycles
system.cpu.icache.ReadReq_mshr_miss_rate::cpu.inst     0.000016                       # mshr miss rate for ReadReq accesses
system.cpu.icache.ReadReq_mshr_miss_rate::total     0.000016                       # mshr miss rate for ReadReq accesses
system.cpu.icache.demand_mshr_miss_rate::cpu.inst     0.000016                       # mshr miss rate for demand accesses
system.cpu.icache.demand_mshr_miss_rate::total     0.000016                       # mshr miss rate for demand accesses
system.cpu.icache.overall_mshr_miss_rate::cpu.inst     0.000016                       # mshr miss rate for overall accesses
system.cpu.icache.overall_mshr_miss_rate::total     0.000016                       # mshr miss rate for overall accesses
system.cpu.icache.ReadReq_avg_mshr_miss_latency::cpu.inst 150472.573840                       # average ReadReq mshr miss latency
system.cpu.icache.ReadReq_avg_mshr_miss_latency::total 150472.573840                       # average ReadReq mshr miss latency
system.cpu.icache.demand_avg_mshr_miss_latency::cpu.inst 150472.573840                       # average overall mshr miss latency
system.cpu.icache.demand_avg_mshr_miss_latency::total 150472.573840                       # average overall mshr miss latency
system.cpu.icache.overall_avg_mshr_miss_latency::cpu.inst 150472.573840                       # average overall mshr miss latency
system.cpu.icache.overall_avg_mshr_miss_latency::total 150472.573840                       # average overall mshr miss latency
system.cpu.icache.replacements                    820                       # number of replacements
system.cpu.itb_walker_cache.tags.pwrStateResidencyTicks::UNDEFINED  92897442000                       # Cumulative time (in ticks) in various power states
system.cpu.itb_walker_cache.tags.tagsinuse            0                       # Cycle average of tags in use
system.cpu.itb_walker_cache.tags.total_refs            0                       # Total number of references to valid blocks.
system.cpu.itb_walker_cache.tags.sampled_refs            0                       # Sample count of references to valid blocks.
system.cpu.itb_walker_cache.tags.avg_refs          nan                       # Average number of references to valid blocks.
system.cpu.itb_walker_cache.tags.warmup_cycle            0                       # Cycle when the warmup percentage was hit.
system.cpu.itb_walker_cache.tags.tag_accesses            0                       # Number of tag accesses
system.cpu.itb_walker_cache.tags.data_accesses            0                       # Number of data accesses
system.cpu.itb_walker_cache.pwrStateResidencyTicks::UNDEFINED  92897442000                       # Cumulative time (in ticks) in various power states
system.cpu.itb_walker_cache.blocked_cycles::no_mshrs            0                       # number of cycles access was blocked
system.cpu.itb_walker_cache.blocked_cycles::no_targets            0                       # number of cycles access was blocked
system.cpu.itb_walker_cache.blocked::no_mshrs            0                       # number of cycles access was blocked
system.cpu.itb_walker_cache.blocked::no_targets            0                       # number of cycles access was blocked
system.cpu.itb_walker_cache.avg_blocked_cycles::no_mshrs          nan                       # average number of cycles each access was blocked
system.cpu.itb_walker_cache.avg_blocked_cycles::no_targets          nan                       # average number of cycles each access was blocked
system.cpu.itb_walker_cache.replacements            0                       # number of replacements
system.l2.tags.pwrStateResidencyTicks::UNDEFINED  92897442000                       # Cumulative time (in ticks) in various power states
system.l2.tags.tagsinuse                   511.720133                       # Cycle average of tags in use
system.l2.tags.total_refs                      161312                       # Total number of references to valid blocks.
system.l2.tags.sampled_refs                     48421                       # Sample count of references to valid blocks.
system.l2.tags.avg_refs                      3.331447                       # Average number of references to valid blocks.
system.l2.tags.warmup_cycle                    428500                       # Cycle when the warmup percentage was hit.
system.l2.tags.occ_blocks::writebacks        2.000223                       # Average occupied blocks per requestor
system.l2.tags.occ_blocks::cpu.inst          1.169884                       # Average occupied blocks per requestor
system.l2.tags.occ_blocks::cpu.data        508.550026                       # Average occupied blocks per requestor
system.l2.tags.occ_percent::writebacks       0.003907                       # Average percentage of cache occupancy
system.l2.tags.occ_percent::cpu.inst         0.002285                       # Average percentage of cache occupancy
system.l2.tags.occ_percent::cpu.data         0.993262                       # Average percentage of cache occupancy
system.l2.tags.occ_percent::total            0.999453                       # Average percentage of cache occupancy
system.l2.tags.occ_task_id_blocks::1024           512                       # Occupied blocks per task id
system.l2.tags.age_task_id_blocks_1024::0           44                       # Occupied blocks per task id
system.l2.tags.age_task_id_blocks_1024::1          148                       # Occupied blocks per task id
system.l2.tags.age_task_id_blocks_1024::2           35                       # Occupied blocks per task id
system.l2.tags.age_task_id_blocks_1024::3          272                       # Occupied blocks per task id
system.l2.tags.age_task_id_blocks_1024::4           13                       # Occupied blocks per task id
system.l2.tags.occ_task_id_percent::1024            1                       # Percentage of cache occupancy per task id
system.l2.tags.tag_accesses                   1339509                       # Number of tag accesses
system.l2.tags.data_accesses                  1339509                       # Number of data accesses
system.l2.pwrStateResidencyTicks::UNDEFINED  92897442000                       # Cumulative time (in ticks) in various power states
system.l2.WritebackDirty_hits::writebacks        59866                       # number of WritebackDirty hits
system.l2.WritebackDirty_hits::total            59866                       # number of WritebackDirty hits
system.l2.WritebackClean_hits::writebacks          820                       # number of WritebackClean hits
system.l2.WritebackClean_hits::total              820                       # number of WritebackClean hits
system.l2.UpgradeReq_hits::cpu.data             26696                       # number of UpgradeReq hits
system.l2.UpgradeReq_hits::total                26696                       # number of UpgradeReq hits
system.l2.ReadExReq_hits::cpu.data               1070                       # number of ReadExReq hits
system.l2.ReadExReq_hits::total                  1070                       # number of ReadExReq hits
system.l2.ReadCleanReq_hits::cpu.inst             175                       # number of ReadCleanReq hits
system.l2.ReadCleanReq_hits::total                175                       # number of ReadCleanReq hits
system.l2.ReadSharedReq_hits::cpu.data          18276                       # number of ReadSharedReq hits
system.l2.ReadSharedReq_hits::total             18276                       # number of ReadSharedReq hits
system.l2.demand_hits::cpu.inst                   175                       # number of demand (read+write) hits
system.l2.demand_hits::cpu.data                 19346                       # number of demand (read+write) hits
system.l2.demand_hits::total                    19521                       # number of demand (read+write) hits
system.l2.overall_hits::cpu.inst                  175                       # number of overall hits
system.l2.overall_hits::cpu.data                19346                       # number of overall hits
system.l2.overall_hits::total                   19521                       # number of overall hits
system.l2.ReadExReq_misses::cpu.data             7011                       # number of ReadExReq misses
system.l2.ReadExReq_misses::total                7011                       # number of ReadExReq misses
system.l2.ReadCleanReq_misses::cpu.inst           773                       # number of ReadCleanReq misses
system.l2.ReadCleanReq_misses::total              773                       # number of ReadCleanReq misses
system.l2.ReadSharedReq_misses::cpu.data        40168                       # number of ReadSharedReq misses
system.l2.ReadSharedReq_misses::total           40168                       # number of ReadSharedReq misses
system.l2.demand_misses::cpu.inst                 773                       # number of demand (read+write) misses
system.l2.demand_misses::cpu.data               47179                       # number of demand (read+write) misses
system.l2.demand_misses::total                  47952                       # number of demand (read+write) misses
system.l2.overall_misses::cpu.inst                773                       # number of overall misses
system.l2.overall_misses::cpu.data              47179                       # number of overall misses
system.l2.overall_misses::total                 47952                       # number of overall misses
system.l2.ReadExReq_miss_latency::cpu.data   1560700500                       # number of ReadExReq miss cycles
system.l2.ReadExReq_miss_latency::total    1560700500                       # number of ReadExReq miss cycles
system.l2.ReadCleanReq_miss_latency::cpu.inst    139378500                       # number of ReadCleanReq miss cycles
system.l2.ReadCleanReq_miss_latency::total    139378500                       # number of ReadCleanReq miss cycles
system.l2.ReadSharedReq_miss_latency::cpu.data   4319444500                       # number of ReadSharedReq miss cycles
system.l2.ReadSharedReq_miss_latency::total   4319444500                       # number of ReadSharedReq miss cycles
system.l2.demand_miss_latency::cpu.inst     139378500                       # number of demand (read+write) miss cycles
system.l2.demand_miss_latency::cpu.data    5880145000                       # number of demand (read+write) miss cycles
system.l2.demand_miss_latency::total       6019523500                       # number of demand (read+write) miss cycles
system.l2.overall_miss_latency::cpu.inst    139378500                       # number of overall miss cycles
system.l2.overall_miss_latency::cpu.data   5880145000                       # number of overall miss cycles
system.l2.overall_miss_latency::total      6019523500                       # number of overall miss cycles
system.l2.WritebackDirty_accesses::writebacks        59866                       # number of WritebackDirty accesses(hits+misses)
system.l2.WritebackDirty_accesses::total        59866                       # number of WritebackDirty accesses(hits+misses)
system.l2.WritebackClean_accesses::writebacks          820                       # number of WritebackClean accesses(hits+misses)
system.l2.WritebackClean_accesses::total          820                       # number of WritebackClean accesses(hits+misses)
system.l2.UpgradeReq_accesses::cpu.data         26696                       # number of UpgradeReq accesses(hits+misses)
system.l2.UpgradeReq_accesses::total            26696                       # number of UpgradeReq accesses(hits+misses)
system.l2.ReadExReq_accesses::cpu.data           8081                       # number of ReadExReq accesses(hits+misses)
system.l2.ReadExReq_accesses::total              8081                       # number of ReadExReq accesses(hits+misses)
system.l2.ReadCleanReq_accesses::cpu.inst          948                       # number of ReadCleanReq accesses(hits+misses)
system.l2.ReadCleanReq_accesses::total            948                       # number of ReadCleanReq accesses(hits+misses)
system.l2.ReadSharedReq_accesses::cpu.data        58444                       # number of ReadSharedReq accesses(hits+misses)
system.l2.ReadSharedReq_accesses::total         58444                       # number of ReadSharedReq accesses(hits+misses)
system.l2.demand_accesses::cpu.inst               948                       # number of demand (read+write) accesses
system.l2.demand_accesses::cpu.data             66525                       # number of demand (read+write) accesses
system.l2.demand_accesses::total                67473                       # number of demand (read+write) accesses
system.l2.overall_accesses::cpu.inst              948                       # number of overall (read+write) accesses
system.l2.overall_accesses::cpu.data            66525                       # number of overall (read+write) accesses
system.l2.overall_accesses::total               67473                       # number of overall (read+write) accesses
system.l2.ReadExReq_miss_rate::cpu.data      0.867591                       # miss rate for ReadExReq accesses
system.l2.ReadExReq_miss_rate::total         0.867591                       # miss rate for ReadExReq accesses
system.l2.ReadCleanReq_miss_rate::cpu.inst     0.815401                       # miss rate for ReadCleanReq accesses
system.l2.ReadCleanReq_miss_rate::total      0.815401                       # miss rate for ReadCleanReq accesses
system.l2.ReadSharedReq_miss_rate::cpu.data     0.687290                       # miss rate for ReadSharedReq accesses
system.l2.ReadSharedReq_miss_rate::total     0.687290                       # miss rate for ReadSharedReq accesses
system.l2.demand_miss_rate::cpu.inst         0.815401                       # miss rate for demand accesses
system.l2.demand_miss_rate::cpu.data         0.709192                       # miss rate for demand accesses
system.l2.demand_miss_rate::total            0.710684                       # miss rate for demand accesses
system.l2.overall_miss_rate::cpu.inst        0.815401                       # miss rate for overall accesses
system.l2.overall_miss_rate::cpu.data        0.709192                       # miss rate for overall accesses
system.l2.overall_miss_rate::total           0.710684                       # miss rate for overall accesses
system.l2.ReadExReq_avg_miss_latency::cpu.data 222607.402653                       # average ReadExReq miss latency
system.l2.ReadExReq_avg_miss_latency::total 222607.402653                       # average ReadExReq miss latency
system.l2.ReadCleanReq_avg_miss_latency::cpu.inst 180308.538163                       # average ReadCleanReq miss latency
system.l2.ReadCleanReq_avg_miss_latency::total 180308.538163                       # average ReadCleanReq miss latency
system.l2.ReadSharedReq_avg_miss_latency::cpu.data 107534.467736                       # average ReadSharedReq miss latency
system.l2.ReadSharedReq_avg_miss_latency::total 107534.467736                       # average ReadSharedReq miss latency
system.l2.demand_avg_miss_latency::cpu.inst 180308.538163                       # average overall miss latency
system.l2.demand_avg_miss_latency::cpu.data 124634.795142                       # average overall miss latency
system.l2.demand_avg_miss_latency::total 125532.271855                       # average overall miss latency
system.l2.overall_avg_miss_latency::cpu.inst 180308.538163                       # average overall miss latency
system.l2.overall_avg_miss_latency::cpu.data 124634.795142                       # average overall miss latency
system.l2.overall_avg_miss_latency::total 125532.271855                       # average overall miss latency
system.l2.blocked_cycles::no_mshrs                  0                       # number of cycles access was blocked
system.l2.blocked_cycles::no_targets                0                       # number of cycles access was blocked
system.l2.blocked::no_mshrs                         0                       # number of cycles access was blocked
system.l2.blocked::no_targets                       0                       # number of cycles access was blocked
system.l2.avg_blocked_cycles::no_mshrs            nan                       # average number of cycles each access was blocked
system.l2.avg_blocked_cycles::no_targets          nan                       # average number of cycles each access was blocked
system.l2.writebacks::writebacks                45305                       # number of writebacks
system.l2.writebacks::total                     45305                       # number of writebacks
system.l2.CleanEvict_mshr_misses::writebacks           74                       # number of CleanEvict MSHR misses
system.l2.CleanEvict_mshr_misses::total            74                       # number of CleanEvict MSHR misses
system.l2.ReadExReq_mshr_misses::cpu.data         7011                       # number of ReadExReq MSHR misses
system.l2.ReadExReq_mshr_misses::total           7011                       # number of ReadExReq MSHR misses
system.l2.ReadCleanReq_mshr_misses::cpu.inst          773                       # number of ReadCleanReq MSHR misses
system.l2.ReadCleanReq_mshr_misses::total          773                       # number of ReadCleanReq MSHR misses
system.l2.ReadSharedReq_mshr_misses::cpu.data        40168                       # number of ReadSharedReq MSHR misses
system.l2.ReadSharedReq_mshr_misses::total        40168                       # number of ReadSharedReq MSHR misses
system.l2.demand_mshr_misses::cpu.inst            773                       # number of demand (read+write) MSHR misses
system.l2.demand_mshr_misses::cpu.data          47179                       # number of demand (read+write) MSHR misses
system.l2.demand_mshr_misses::total             47952                       # number of demand (read+write) MSHR misses
system.l2.overall_mshr_misses::cpu.inst           773                       # number of overall MSHR misses
system.l2.overall_mshr_misses::cpu.data         47179                       # number of overall MSHR misses
system.l2.overall_mshr_misses::total            47952                       # number of overall MSHR misses
system.l2.ReadExReq_mshr_miss_latency::cpu.data   1490590500                       # number of ReadExReq MSHR miss cycles
system.l2.ReadExReq_mshr_miss_latency::total   1490590500                       # number of ReadExReq MSHR miss cycles
system.l2.ReadCleanReq_mshr_miss_latency::cpu.inst    131648500                       # number of ReadCleanReq MSHR miss cycles
system.l2.ReadCleanReq_mshr_miss_latency::total    131648500                       # number of ReadCleanReq MSHR miss cycles
system.l2.ReadSharedReq_mshr_miss_latency::cpu.data   3917764500                       # number of ReadSharedReq MSHR miss cycles
system.l2.ReadSharedReq_mshr_miss_latency::total   3917764500                       # number of ReadSharedReq MSHR miss cycles
system.l2.demand_mshr_miss_latency::cpu.inst    131648500                       # number of demand (read+write) MSHR miss cycles
system.l2.demand_mshr_miss_latency::cpu.data   5408355000                       # number of demand (read+write) MSHR miss cycles
system.l2.demand_mshr_miss_latency::total   5540003500                       # number of demand (read+write) MSHR miss cycles
system.l2.overall_mshr_miss_latency::cpu.inst    131648500                       # number of overall MSHR miss cycles
system.l2.overall_mshr_miss_latency::cpu.data   5408355000                       # number of overall MSHR miss cycles
system.l2.overall_mshr_miss_latency::total   5540003500                       # number of overall MSHR miss cycles
system.l2.CleanEvict_mshr_miss_rate::writebacks          inf                       # mshr miss rate for CleanEvict accesses
system.l2.CleanEvict_mshr_miss_rate::total          inf                       # mshr miss rate for CleanEvict accesses
system.l2.ReadExReq_mshr_miss_rate::cpu.data     0.867591                       # mshr miss rate for ReadExReq accesses
system.l2.ReadExReq_mshr_miss_rate::total     0.867591                       # mshr miss rate for ReadExReq accesses
system.l2.ReadCleanReq_mshr_miss_rate::cpu.inst     0.815401                       # mshr miss rate for ReadCleanReq accesses
system.l2.ReadCleanReq_mshr_miss_rate::total     0.815401                       # mshr miss rate for ReadCleanReq accesses
system.l2.ReadSharedReq_mshr_miss_rate::cpu.data     0.687290                       # mshr miss rate for ReadSharedReq accesses
system.l2.ReadSharedReq_mshr_miss_rate::total     0.687290                       # mshr miss rate for ReadSharedReq accesses
system.l2.demand_mshr_miss_rate::cpu.inst     0.815401                       # mshr miss rate for demand accesses
system.l2.demand_mshr_miss_rate::cpu.data     0.709192                       # mshr miss rate for demand accesses
system.l2.demand_mshr_miss_rate::total       0.710684                       # mshr miss rate for demand accesses
system.l2.overall_mshr_miss_rate::cpu.inst     0.815401                       # mshr miss rate for overall accesses
system.l2.overall_mshr_miss_rate::cpu.data     0.709192                       # mshr miss rate for overall accesses
system.l2.overall_mshr_miss_rate::total      0.710684                       # mshr miss rate for overall accesses
system.l2.ReadExReq_avg_mshr_miss_latency::cpu.data 212607.402653                       # average ReadExReq mshr miss latency
system.l2.ReadExReq_avg_mshr_miss_latency::total 212607.402653                       # average ReadExReq mshr miss latency
system.l2.ReadCleanReq_avg_mshr_miss_latency::cpu.inst 170308.538163                       # average ReadCleanReq mshr miss latency
system.l2.ReadCleanReq_avg_mshr_miss_latency::total 170308.538163                       # average ReadCleanReq mshr miss latency
system.l2.ReadSharedReq_avg_mshr_miss_latency::cpu.data 97534.467736                       # average ReadSharedReq mshr miss latency
system.l2.ReadSharedReq_avg_mshr_miss_latency::total 97534.467736                       # average ReadSharedReq mshr miss latency
system.l2.demand_avg_mshr_miss_latency::cpu.inst 170308.538163                       # average overall mshr miss latency
system.l2.demand_avg_mshr_miss_latency::cpu.data 114634.795142                       # average overall mshr miss latency
system.l2.demand_avg_mshr_miss_latency::total 115532.271855                       # average overall mshr miss latency
system.l2.overall_avg_mshr_miss_latency::cpu.inst 170308.538163                       # average overall mshr miss latency
system.l2.overall_avg_mshr_miss_latency::cpu.data 114634.795142                       # average overall mshr miss latency
system.l2.overall_avg_mshr_miss_latency::total 115532.271855                       # average overall mshr miss latency
system.l2.replacements                          47909                       # number of replacements
system.l3.tags.pwrStateResidencyTicks::UNDEFINED  92897442000                       # Cumulative time (in ticks) in various power states
system.l3.tags.tagsinuse                  3985.520140                       # Cycle average of tags in use
system.l3.tags.total_refs                       95215                       # Total number of references to valid blocks.
system.l3.tags.sampled_refs                     16398                       # Sample count of references to valid blocks.
system.l3.tags.avg_refs                      5.806501                       # Average number of references to valid blocks.
system.l3.tags.warmup_cycle                    418000                       # Cycle when the warmup percentage was hit.
system.l3.tags.occ_blocks::writebacks       99.080207                       # Average occupied blocks per requestor
system.l3.tags.occ_blocks::cpu.inst         22.144415                       # Average occupied blocks per requestor
system.l3.tags.occ_blocks::cpu.data       3864.295518                       # Average occupied blocks per requestor
system.l3.tags.occ_percent::writebacks       0.024190                       # Average percentage of cache occupancy
system.l3.tags.occ_percent::cpu.inst         0.005406                       # Average percentage of cache occupancy
system.l3.tags.occ_percent::cpu.data         0.943432                       # Average percentage of cache occupancy
system.l3.tags.occ_percent::total            0.973027                       # Average percentage of cache occupancy
system.l3.tags.occ_task_id_blocks::1024          4096                       # Occupied blocks per task id
system.l3.tags.age_task_id_blocks_1024::0           31                       # Occupied blocks per task id
system.l3.tags.age_task_id_blocks_1024::1           94                       # Occupied blocks per task id
system.l3.tags.age_task_id_blocks_1024::3            2                       # Occupied blocks per task id
system.l3.tags.age_task_id_blocks_1024::4         3969                       # Occupied blocks per task id
system.l3.tags.occ_task_id_percent::1024            1                       # Percentage of cache occupancy per task id
system.l3.tags.tag_accesses                    111740                       # Number of tag accesses
system.l3.tags.data_accesses                   111740                       # Number of data accesses
system.l3.pwrStateResidencyTicks::UNDEFINED  92897442000                       # Cumulative time (in ticks) in various power states
system.l3.WritebackDirty_hits::writebacks        45305                       # number of WritebackDirty hits
system.l3.WritebackDirty_hits::total            45305                       # number of WritebackDirty hits
system.l3.ReadExReq_hits::cpu.data                223                       # number of ReadExReq hits
system.l3.ReadExReq_hits::total                   223                       # number of ReadExReq hits
system.l3.ReadSharedReq_hits::cpu.inst             20                       # number of ReadSharedReq hits
system.l3.ReadSharedReq_hits::cpu.data          31979                       # number of ReadSharedReq hits
system.l3.ReadSharedReq_hits::total             31999                       # number of ReadSharedReq hits
system.l3.demand_hits::cpu.inst                    20                       # number of demand (read+write) hits
system.l3.demand_hits::cpu.data                 32202                       # number of demand (read+write) hits
system.l3.demand_hits::total                    32222                       # number of demand (read+write) hits
system.l3.overall_hits::cpu.inst                   20                       # number of overall hits
system.l3.overall_hits::cpu.data                32202                       # number of overall hits
system.l3.overall_hits::total                   32222                       # number of overall hits
system.l3.ReadExReq_misses::cpu.data             6788                       # number of ReadExReq misses
system.l3.ReadExReq_misses::total                6788                       # number of ReadExReq misses
system.l3.ReadSharedReq_misses::cpu.inst          753                       # number of ReadSharedReq misses
system.l3.ReadSharedReq_misses::cpu.data         8189                       # number of ReadSharedReq misses
system.l3.ReadSharedReq_misses::total            8942                       # number of ReadSharedReq misses
system.l3.demand_misses::cpu.inst                 753                       # number of demand (read+write) misses
system.l3.demand_misses::cpu.data               14977                       # number of demand (read+write) misses
system.l3.demand_misses::total                  15730                       # number of demand (read+write) misses
system.l3.overall_misses::cpu.inst                753                       # number of overall misses
system.l3.overall_misses::cpu.data              14977                       # number of overall misses
system.l3.overall_misses::total                 15730                       # number of overall misses
system.l3.ReadExReq_miss_latency::cpu.data   1411128000                       # number of ReadExReq miss cycles
system.l3.ReadExReq_miss_latency::total    1411128000                       # number of ReadExReq miss cycles
system.l3.ReadSharedReq_miss_latency::cpu.inst    122935500                       # number of ReadSharedReq miss cycles
system.l3.ReadSharedReq_miss_latency::cpu.data   3140137000                       # number of ReadSharedReq miss cycles
system.l3.ReadSharedReq_miss_latency::total   3263072500                       # number of ReadSharedReq miss cycles
system.l3.demand_miss_latency::cpu.inst     122935500                       # number of demand (read+write) miss cycles
system.l3.demand_miss_latency::cpu.data    4551265000                       # number of demand (read+write) miss cycles
system.l3.demand_miss_latency::total       4674200500                       # number of demand (read+write) miss cycles
system.l3.overall_miss_latency::cpu.inst    122935500                       # number of overall miss cycles
system.l3.overall_miss_latency::cpu.data   4551265000                       # number of overall miss cycles
system.l3.overall_miss_latency::total      4674200500                       # number of overall miss cycles
system.l3.WritebackDirty_accesses::writebacks        45305                       # number of WritebackDirty accesses(hits+misses)
system.l3.WritebackDirty_accesses::total        45305                       # number of WritebackDirty accesses(hits+misses)
system.l3.ReadExReq_accesses::cpu.data           7011                       # number of ReadExReq accesses(hits+misses)
system.l3.ReadExReq_accesses::total              7011                       # number of ReadExReq accesses(hits+misses)
system.l3.ReadSharedReq_accesses::cpu.inst          773                       # number of ReadSharedReq accesses(hits+misses)
system.l3.ReadSharedReq_accesses::cpu.data        40168                       # number of ReadSharedReq accesses(hits+misses)
system.l3.ReadSharedReq_accesses::total         40941                       # number of ReadSharedReq accesses(hits+misses)
system.l3.demand_accesses::cpu.inst               773                       # number of demand (read+write) accesses
system.l3.demand_accesses::cpu.data             47179                       # number of demand (read+write) accesses
system.l3.demand_accesses::total                47952                       # number of demand (read+write) accesses
system.l3.overall_accesses::cpu.inst              773                       # number of overall (read+write) accesses
system.l3.overall_accesses::cpu.data            47179                       # number of overall (read+write) accesses
system.l3.overall_accesses::total               47952                       # number of overall (read+write) accesses
system.l3.ReadExReq_miss_rate::cpu.data      0.968193                       # miss rate for ReadExReq accesses
system.l3.ReadExReq_miss_rate::total         0.968193                       # miss rate for ReadExReq accesses
system.l3.ReadSharedReq_miss_rate::cpu.inst     0.974127                       # miss rate for ReadSharedReq accesses
system.l3.ReadSharedReq_miss_rate::cpu.data     0.203869                       # miss rate for ReadSharedReq accesses
system.l3.ReadSharedReq_miss_rate::total     0.218412                       # miss rate for ReadSharedReq accesses
system.l3.demand_miss_rate::cpu.inst         0.974127                       # miss rate for demand accesses
system.l3.demand_miss_rate::cpu.data         0.317451                       # miss rate for demand accesses
system.l3.demand_miss_rate::total            0.328036                       # miss rate for demand accesses
system.l3.overall_miss_rate::cpu.inst        0.974127                       # miss rate for overall accesses
system.l3.overall_miss_rate::cpu.data        0.317451                       # miss rate for overall accesses
system.l3.overall_miss_rate::total           0.328036                       # miss rate for overall accesses
system.l3.ReadExReq_avg_miss_latency::cpu.data 207885.680613                       # average ReadExReq miss latency
system.l3.ReadExReq_avg_miss_latency::total 207885.680613                       # average ReadExReq miss latency
system.l3.ReadSharedReq_avg_miss_latency::cpu.inst 163260.956175                       # average ReadSharedReq miss latency
system.l3.ReadSharedReq_avg_miss_latency::cpu.data 383457.931371                       # average ReadSharedReq miss latency
system.l3.ReadSharedReq_avg_miss_latency::total 364915.287408                       # average ReadSharedReq miss latency
system.l3.demand_avg_miss_latency::cpu.inst 163260.956175                       # average overall miss latency
system.l3.demand_avg_miss_latency::cpu.data 303883.621553                       # average overall miss latency
system.l3.demand_avg_miss_latency::total 297151.970757                       # average overall miss latency
system.l3.overall_avg_miss_latency::cpu.inst 163260.956175                       # average overall miss latency
system.l3.overall_avg_miss_latency::cpu.data 303883.621553                       # average overall miss latency
system.l3.overall_avg_miss_latency::total 297151.970757                       # average overall miss latency
system.l3.blocked_cycles::no_mshrs                  0                       # number of cycles access was blocked
system.l3.blocked_cycles::no_targets                0                       # number of cycles access was blocked
system.l3.blocked::no_mshrs                         0                       # number of cycles access was blocked
system.l3.blocked::no_targets                       0                       # number of cycles access was blocked
system.l3.avg_blocked_cycles::no_mshrs            nan                       # average number of cycles each access was blocked
system.l3.avg_blocked_cycles::no_targets          nan                       # average number of cycles each access was blocked
system.l3.writebacks::writebacks                 9909                       # number of writebacks
system.l3.writebacks::total                      9909                       # number of writebacks
system.l3.CleanEvict_mshr_misses::writebacks          127                       # number of CleanEvict MSHR misses
system.l3.CleanEvict_mshr_misses::total           127                       # number of CleanEvict MSHR misses
system.l3.ReadExReq_mshr_misses::cpu.data         6788                       # number of ReadExReq MSHR misses
system.l3.ReadExReq_mshr_misses::total           6788                       # number of ReadExReq MSHR misses
system.l3.ReadSharedReq_mshr_misses::cpu.inst          753                       # number of ReadSharedReq MSHR misses
system.l3.ReadSharedReq_mshr_misses::cpu.data         8189                       # number of ReadSharedReq MSHR misses
system.l3.ReadSharedReq_mshr_misses::total         8942                       # number of ReadSharedReq MSHR misses
system.l3.demand_mshr_misses::cpu.inst            753                       # number of demand (read+write) MSHR misses
system.l3.demand_mshr_misses::cpu.data          14977                       # number of demand (read+write) MSHR misses
system.l3.demand_mshr_misses::total             15730                       # number of demand (read+write) MSHR misses
system.l3.overall_mshr_misses::cpu.inst           753                       # number of overall MSHR misses
system.l3.overall_mshr_misses::cpu.data         14977                       # number of overall MSHR misses
system.l3.overall_mshr_misses::total            15730                       # number of overall MSHR misses
system.l3.ReadExReq_mshr_miss_latency::cpu.data   1343248000                       # number of ReadExReq MSHR miss cycles
system.l3.ReadExReq_mshr_miss_latency::total   1343248000                       # number of ReadExReq MSHR miss cycles
system.l3.ReadSharedReq_mshr_miss_latency::cpu.inst    115405500                       # number of ReadSharedReq MSHR miss cycles
system.l3.ReadSharedReq_mshr_miss_latency::cpu.data   3058247000                       # number of ReadSharedReq MSHR miss cycles
system.l3.ReadSharedReq_mshr_miss_latency::total   3173652500                       # number of ReadSharedReq MSHR miss cycles
system.l3.demand_mshr_miss_latency::cpu.inst    115405500                       # number of demand (read+write) MSHR miss cycles
system.l3.demand_mshr_miss_latency::cpu.data   4401495000                       # number of demand (read+write) MSHR miss cycles
system.l3.demand_mshr_miss_latency::total   4516900500                       # number of demand (read+write) MSHR miss cycles
system.l3.overall_mshr_miss_latency::cpu.inst    115405500                       # number of overall MSHR miss cycles
system.l3.overall_mshr_miss_latency::cpu.data   4401495000                       # number of overall MSHR miss cycles
system.l3.overall_mshr_miss_latency::total   4516900500                       # number of overall MSHR miss cycles
system.l3.CleanEvict_mshr_miss_rate::writebacks          inf                       # mshr miss rate for CleanEvict accesses
system.l3.CleanEvict_mshr_miss_rate::total          inf                       # mshr miss rate for CleanEvict accesses
system.l3.ReadExReq_mshr_miss_rate::cpu.data     0.968193                       # mshr miss rate for ReadExReq accesses
system.l3.ReadExReq_mshr_miss_rate::total     0.968193                       # mshr miss rate for ReadExReq accesses
system.l3.ReadSharedReq_mshr_miss_rate::cpu.inst     0.974127                       # mshr miss rate for ReadSharedReq accesses
system.l3.ReadSharedReq_mshr_miss_rate::cpu.data     0.203869                       # mshr miss rate for ReadSharedReq accesses
system.l3.ReadSharedReq_mshr_miss_rate::total     0.218412                       # mshr miss rate for ReadSharedReq accesses
system.l3.demand_mshr_miss_rate::cpu.inst     0.974127                       # mshr miss rate for demand accesses
system.l3.demand_mshr_miss_rate::cpu.data     0.317451                       # mshr miss rate for demand accesses
system.l3.demand_mshr_miss_rate::total       0.328036                       # mshr miss rate for demand accesses
system.l3.overall_mshr_miss_rate::cpu.inst     0.974127                       # mshr miss rate for overall accesses
system.l3.overall_mshr_miss_rate::cpu.data     0.317451                       # mshr miss rate for overall accesses
system.l3.overall_mshr_miss_rate::total      0.328036                       # mshr miss rate for overall accesses
system.l3.ReadExReq_avg_mshr_miss_latency::cpu.data 197885.680613                       # average ReadExReq mshr miss latency
system.l3.ReadExReq_avg_mshr_miss_latency::total 197885.680613                       # average ReadExReq mshr miss latency
system.l3.ReadSharedReq_avg_mshr_miss_latency::cpu.inst 153260.956175                       # average ReadSharedReq mshr miss latency
system.l3.ReadSharedReq_avg_mshr_miss_latency::cpu.data 373457.931371                       # average ReadSharedReq mshr miss latency
system.l3.ReadSharedReq_avg_mshr_miss_latency::total 354915.287408                       # average ReadSharedReq mshr miss latency
system.l3.demand_avg_mshr_miss_latency::cpu.inst 153260.956175                       # average overall mshr miss latency
system.l3.demand_avg_mshr_miss_latency::cpu.data 293883.621553                       # average overall mshr miss latency
system.l3.demand_avg_mshr_miss_latency::total 287151.970757                       # average overall mshr miss latency
system.l3.overall_avg_mshr_miss_latency::cpu.inst 153260.956175                       # average overall mshr miss latency
system.l3.overall_avg_mshr_miss_latency::cpu.data 293883.621553                       # average overall mshr miss latency
system.l3.overall_avg_mshr_miss_latency::total 287151.970757                       # average overall mshr miss latency
system.l3.replacements                          12302                       # number of replacements
system.membus.snoop_filter.tot_requests         27660                       # Total number of requests made to the snoop filter.
system.membus.snoop_filter.hit_single_requests        11930                       # Number of requests hitting in the snoop filter with a single holder of the requested data.
system.membus.snoop_filter.hit_multi_requests            0                       # Number of requests hitting in the snoop filter with multiple (>1) holders of the requested data.
system.membus.snoop_filter.tot_snoops               0                       # Total number of snoops made to the snoop filter.
system.membus.snoop_filter.hit_single_snoops            0                       # Number of snoops hitting in the snoop filter with a single holder of the requested data.
system.membus.snoop_filter.hit_multi_snoops            0                       # Number of snoops hitting in the snoop filter with multiple (>1) holders of the requested data.
system.membus.pwrStateResidencyTicks::UNDEFINED  92897442000                       # Cumulative time (in ticks) in various power states
system.membus.trans_dist::ReadResp               8942                       # Transaction distribution
system.membus.trans_dist::WritebackDirty         9909                       # Transaction distribution
system.membus.trans_dist::CleanEvict             1589                       # Transaction distribution
system.membus.trans_dist::ReadExReq              6788                       # Transaction distribution
system.membus.trans_dist::ReadExResp             6788                       # Transaction distribution
system.membus.trans_dist::ReadSharedReq          8942                       # Transaction distribution
system.membus.pkt_count_system.l3.mem_side::system.mem_ctrls.port        42958                       # Packet count per connected master and slave (bytes)
system.membus.pkt_count_system.l3.mem_side::total        42958                       # Packet count per connected master and slave (bytes)
system.membus.pkt_count::total                  42958                       # Packet count per connected master and slave (bytes)
system.membus.pkt_size_system.l3.mem_side::system.mem_ctrls.port      1640896                       # Cumulative packet size per connected master and slave (bytes)
system.membus.pkt_size_system.l3.mem_side::total      1640896                       # Cumulative packet size per connected master and slave (bytes)
system.membus.pkt_size::total                 1640896                       # Cumulative packet size per connected master and slave (bytes)
system.membus.snoops                                0                       # Total snoops (count)
system.membus.snoopTraffic                          0                       # Total snoop traffic (bytes)
system.membus.snoop_fanout::samples             15730                       # Request fanout histogram
system.membus.snoop_fanout::mean                    0                       # Request fanout histogram
system.membus.snoop_fanout::stdev                   0                       # Request fanout histogram
system.membus.snoop_fanout::underflows              0      0.00%      0.00% # Request fanout histogram
system.membus.snoop_fanout::0                   15730    100.00%    100.00% # Request fanout histogram
system.membus.snoop_fanout::1                       0      0.00%    100.00% # Request fanout histogram
system.membus.snoop_fanout::overflows               0      0.00%    100.00% # Request fanout histogram
system.membus.snoop_fanout::min_value               0                       # Request fanout histogram
system.membus.snoop_fanout::max_value               0                       # Request fanout histogram
system.membus.snoop_fanout::total               15730                       # Request fanout histogram
system.membus.reqLayer2.occupancy            67333000                       # Layer occupancy (ticks)
system.membus.reqLayer2.utilization               0.1                       # Layer utilization (%)
system.membus.respLayer1.occupancy           78686000                       # Layer occupancy (ticks)
system.membus.respLayer1.utilization              0.1                       # Layer utilization (%)
system.tol2bus.snoop_filter.tot_requests       161386                       # Total number of requests made to the snoop filter.
system.tol2bus.snoop_filter.hit_single_requests        93913                       # Number of requests hitting in the snoop filter with a single holder of the requested data.
system.tol2bus.snoop_filter.hit_multi_requests            0                       # Number of requests hitting in the snoop filter with multiple (>1) holders of the requested data.
system.tol2bus.snoop_filter.tot_snoops           1022                       # Total number of snoops made to the snoop filter.
system.tol2bus.snoop_filter.hit_single_snoops         1022                       # Number of snoops hitting in the snoop filter with a single holder of the requested data.
system.tol2bus.snoop_filter.hit_multi_snoops            0                       # Number of snoops hitting in the snoop filter with multiple (>1) holders of the requested data.
system.tol2bus.pwrStateResidencyTicks::UNDEFINED  92897442000                       # Cumulative time (in ticks) in various power states
system.tol2bus.trans_dist::ReadResp             59392                       # Transaction distribution
system.tol2bus.trans_dist::WritebackDirty       115080                       # Transaction distribution
system.tol2bus.trans_dist::WritebackClean          820                       # Transaction distribution
system.tol2bus.trans_dist::CleanEvict           11528                       # Transaction distribution
system.tol2bus.trans_dist::UpgradeReq           26696                       # Transaction distribution
system.tol2bus.trans_dist::UpgradeResp          26696                       # Transaction distribution
system.tol2bus.trans_dist::ReadExReq             8081                       # Transaction distribution
system.tol2bus.trans_dist::ReadExResp            8081                       # Transaction distribution
system.tol2bus.trans_dist::ReadCleanReq           948                       # Transaction distribution
system.tol2bus.trans_dist::ReadSharedReq        58444                       # Transaction distribution
system.tol2bus.pkt_count_system.cpu.icache.mem_side::system.l2.cpu_side         2716                       # Packet count per connected master and slave (bytes)
system.tol2bus.pkt_count_system.cpu.dcache.mem_side::system.l2.cpu_side       252839                       # Packet count per connected master and slave (bytes)
system.tol2bus.pkt_count::total                255555                       # Packet count per connected master and slave (bytes)
system.tol2bus.pkt_size_system.cpu.icache.mem_side::system.l2.cpu_side       113152                       # Cumulative packet size per connected master and slave (bytes)
system.tol2bus.pkt_size_system.cpu.dcache.mem_side::system.l2.cpu_side      8089024                       # Cumulative packet size per connected master and slave (bytes)
system.tol2bus.pkt_size::total                8202176                       # Cumulative packet size per connected master and slave (bytes)
system.tol2bus.snoops                           60211                       # Total snoops (count)
system.tol2bus.snoopTraffic                   3533696                       # Total snoop traffic (bytes)
system.tol2bus.snoop_fanout::samples           154380                       # Request fanout histogram
system.tol2bus.snoop_fanout::mean            0.006620                       # Request fanout histogram
system.tol2bus.snoop_fanout::stdev           0.081094                       # Request fanout histogram
system.tol2bus.snoop_fanout::underflows             0      0.00%      0.00% # Request fanout histogram
system.tol2bus.snoop_fanout::0                 153358     99.34%     99.34% # Request fanout histogram
system.tol2bus.snoop_fanout::1                   1022      0.66%    100.00% # Request fanout histogram
system.tol2bus.snoop_fanout::2                      0      0.00%    100.00% # Request fanout histogram
system.tol2bus.snoop_fanout::3                      0      0.00%    100.00% # Request fanout histogram
system.tol2bus.snoop_fanout::4                      0      0.00%    100.00% # Request fanout histogram
system.tol2bus.snoop_fanout::overflows              0      0.00%    100.00% # Request fanout histogram
system.tol2bus.snoop_fanout::min_value              0                       # Request fanout histogram
system.tol2bus.snoop_fanout::max_value              1                       # Request fanout histogram
system.tol2bus.snoop_fanout::total             154380                       # Request fanout histogram
system.tol2bus.reqLayer0.occupancy          141379000                       # Layer occupancy (ticks)
system.tol2bus.reqLayer0.utilization              0.2                       # Layer utilization (%)
system.tol2bus.respLayer0.occupancy           1422000                       # Layer occupancy (ticks)
system.tol2bus.respLayer0.utilization             0.0                       # Layer utilization (%)
system.tol2bus.respLayer1.occupancy         113135500                       # Layer occupancy (ticks)
system.tol2bus.respLayer1.utilization             0.1                       # Layer utilization (%)
system.tol3bus.pwrStateResidencyTicks::UNDEFINED  92897442000                       # Cumulative time (in ticks) in various power states
system.tol3bus.trans_dist::ReadResp             40941                       # Transaction distribution
system.tol3bus.trans_dist::WritebackDirty        55214                       # Transaction distribution
system.tol3bus.trans_dist::CleanEvict            4478                       # Transaction distribution
system.tol3bus.trans_dist::ReadExReq             7011                       # Transaction distribution
system.tol3bus.trans_dist::ReadExResp            7011                       # Transaction distribution
system.tol3bus.trans_dist::ReadSharedReq        40941                       # Transaction distribution
system.tol3bus.pkt_count_system.l2.mem_side::system.l3.cpu_side       143294                       # Packet count per connected master and slave (bytes)
system.tol3bus.pkt_size_system.l2.mem_side::system.l3.cpu_side      5968448                       # Cumulative packet size per connected master and slave (bytes)
system.tol3bus.snoops                           12302                       # Total snoops (count)
system.tol3bus.snoopTraffic                    634176                       # Total snoop traffic (bytes)
system.tol3bus.snoop_fanout::samples           107644                       # Request fanout histogram
system.tol3bus.snoop_fanout::mean            0.114284                       # Request fanout histogram
system.tol3bus.snoop_fanout::stdev           0.318158                       # Request fanout histogram
system.tol3bus.snoop_fanout::underflows             0      0.00%      0.00% # Request fanout histogram
system.tol3bus.snoop_fanout::0                  95342     88.57%     88.57% # Request fanout histogram
system.tol3bus.snoop_fanout::1                  12302     11.43%    100.00% # Request fanout histogram
system.tol3bus.snoop_fanout::overflows              0      0.00%    100.00% # Request fanout histogram
system.tol3bus.snoop_fanout::min_value              0                       # Request fanout histogram
system.tol3bus.snoop_fanout::max_value              1                       # Request fanout histogram
system.tol3bus.snoop_fanout::total             107644                       # Request fanout histogram
system.tol3bus.reqLayer0.occupancy           92976000                       # Layer occupancy (ticks)
system.tol3bus.reqLayer0.utilization              0.1                       # Layer utilization (%)
system.tol3bus.respLayer0.occupancy          71928000                       # Layer occupancy (ticks)
system.tol3bus.respLayer0.utilization             0.1                       # Layer utilization (%)

---------- End Simulation Statistics   ----------
