
---------- Begin Simulation Statistics ----------
sim_seconds                                  0.093170                       # Number of seconds simulated
sim_ticks                                 93169507000                       # Number of ticks simulated
final_tick                                93169507000                       # Number of ticks from beginning of simulation (restored from checkpoints and never reset)
sim_freq                                 1000000000000                       # Frequency of simulated ticks
host_inst_rate                                1523865                       # Simulator instruction rate (inst/s)
host_op_rate                                  2514116                       # Simulator op (including micro ops) rate (op/s)
host_tick_rate                             3171438306                       # Simulator tick rate (ticks/s)
host_mem_usage                                 670028                       # Number of bytes of host memory used
host_seconds                                    29.38                       # Real time elapsed on the host
sim_insts                                    44767600                       # Number of instructions simulated
sim_ops                                      73858898                       # Number of ops (including micro ops) simulated
system.voltage_domain.voltage                       1                       # Voltage in Volts
system.clk_domain.clock                          1000                       # Clock period in ticks
system.mem_ctrls.pwrStateResidencyTicks::UNDEFINED  93169507000                       # Cumulative time (in ticks) in various power states
system.mem_ctrls.bytes_read::cpu.inst           47552                       # Number of bytes read from this memory
system.mem_ctrls.bytes_read::cpu.data         1122816                       # Number of bytes read from this memory
system.mem_ctrls.bytes_read::total            1170368                       # Number of bytes read from this memory
system.mem_ctrls.bytes_inst_read::cpu.inst        47552                       # Number of instructions bytes read from this memory
system.mem_ctrls.bytes_inst_read::total         47552                       # Number of instructions bytes read from this memory
system.mem_ctrls.bytes_written::writebacks       799552                       # Number of bytes written to this memory
system.mem_ctrls.bytes_written::total          799552                       # Number of bytes written to this memory
system.mem_ctrls.num_reads::cpu.inst              743                       # Number of read requests responded to by this memory
system.mem_ctrls.num_reads::cpu.data            17544                       # Number of read requests responded to by this memory
system.mem_ctrls.num_reads::total               18287                       # Number of read requests responded to by this memory
system.mem_ctrls.num_writes::writebacks         12493                       # Number of write requests responded to by this memory
system.mem_ctrls.num_writes::total              12493                       # Number of write requests responded to by this memory
system.mem_ctrls.bw_read::cpu.inst             510382                       # Total read bandwidth from this memory (bytes/s)
system.mem_ctrls.bw_read::cpu.data           12051325                       # Total read bandwidth from this memory (bytes/s)
system.mem_ctrls.bw_read::total              12561706                       # Total read bandwidth from this memory (bytes/s)
system.mem_ctrls.bw_inst_read::cpu.inst        510382                       # Instruction read bandwidth from this memory (bytes/s)
system.mem_ctrls.bw_inst_read::total           510382                       # Instruction read bandwidth from this memory (bytes/s)
system.mem_ctrls.bw_write::writebacks         8581692                       # Write bandwidth from this memory (bytes/s)
system.mem_ctrls.bw_write::total              8581692                       # Write bandwidth from this memory (bytes/s)
system.mem_ctrls.bw_total::writebacks         8581692                       # Total bandwidth to/from this memory (bytes/s)
system.mem_ctrls.bw_total::cpu.inst            510382                       # Total bandwidth to/from this memory (bytes/s)
system.mem_ctrls.bw_total::cpu.data          12051325                       # Total bandwidth to/from this memory (bytes/s)
system.mem_ctrls.bw_total::total             21143398                       # Total bandwidth to/from this memory (bytes/s)
system.pwrStateResidencyTicks::UNDEFINED  93169507000                       # Cumulative time (in ticks) in various power states
system.cpu_voltage_domain.voltage                   1                       # Voltage in Volts
system.cpu_clk_domain.clock                       500                       # Clock period in ticks
system.cpu.dtb.walker.pwrStateResidencyTicks::UNDEFINED  93169507000                       # Cumulative time (in ticks) in various power states
system.cpu.dtb.rdAccesses                    20998403                       # TLB accesses on read requests
system.cpu.dtb.wrAccesses                     5824776                       # TLB accesses on write requests
system.cpu.dtb.rdMisses                           232                       # TLB misses on read requests
system.cpu.dtb.wrMisses                           111                       # TLB misses on write requests
system.cpu.apic_clk_domain.clock                 8000                       # Clock period in ticks
system.cpu.interrupts.pwrStateResidencyTicks::UNDEFINED  93169507000                       # Cumulative time (in ticks) in various power states
system.cpu.itb.walker.pwrStateResidencyTicks::UNDEFINED  93169507000                       # Cumulative time (in ticks) in various power states
system.cpu.itb.rdAccesses                           0                       # TLB accesses on read requests
system.cpu.itb.wrAccesses                    59428522                       # TLB accesses on write requests
system.cpu.itb.rdMisses                             0                       # TLB misses on read requests
system.cpu.itb.wrMisses                            78                       # TLB misses on write requests
system.cpu.workload.numSyscalls                    25                       # Number of system calls
system.cpu.pwrStateResidencyTicks::ON     93169507000                       # Cumulative time (in ticks) in various power states
system.cpu.numCycles                        186339014                       # number of cpu cycles simulated
system.cpu.numWorkItemsStarted                      0                       # number of work items this cpu started
system.cpu.numWorkItemsCompleted                    0                       # number of work items this cpu completed
system.cpu.committedInsts                    44767600                       # Number of instructions committed
system.cpu.committedOps                      73858898                       # Number of ops (including micro ops) committed
system.cpu.num_int_alu_accesses              73334921                       # Number of integer alu accesses
system.cpu.num_fp_alu_accesses                   4306                       # Number of float alu accesses
system.cpu.num_vec_alu_accesses                     0                       # Number of vector alu accesses
system.cpu.num_func_calls                      945812                       # number of times a function call or return occured
system.cpu.num_conditional_control_insts      4246118                       # number of instructions that are conditional controls
system.cpu.num_int_insts                     73334921                       # number of integer instructions
system.cpu.num_fp_insts                          4306                       # number of float instructions
system.cpu.num_vec_insts                            0                       # number of vector instructions
system.cpu.num_int_register_reads           164564256                       # number of times the integer registers were read
system.cpu.num_int_register_writes           64004149                       # number of times the integer registers were written
system.cpu.num_fp_register_reads                 6398                       # number of times the floating registers were read
system.cpu.num_fp_register_writes                3197                       # number of times the floating registers were written
system.cpu.num_vec_register_reads                   0                       # number of times the vector registers were read
system.cpu.num_vec_register_writes                  0                       # number of times the vector registers were written
system.cpu.num_cc_register_reads             27729350                       # number of times the CC registers were read
system.cpu.num_cc_register_writes            24993551                       # number of times the CC registers were written
system.cpu.num_mem_refs                      26823172                       # number of memory refs
system.cpu.num_load_insts                    20998396                       # Number of load instructions
system.cpu.num_store_insts                    5824776                       # Number of store instructions
system.cpu.num_idle_cycles                          0                       # Number of idle cycles
system.cpu.num_busy_cycles                  186339014                       # Number of busy cycles
system.cpu.not_idle_fraction                        1                       # Percentage of non-idle cycles
system.cpu.idle_fraction                            0                       # Percentage of idle cycles
system.cpu.Branches                           5689975                       # Number of branches fetched
system.cpu.op_class::No_OpClass                177072      0.24%      0.24% # Class of executed instruction
system.cpu.op_class::IntAlu                  45851855     62.08%     62.32% # Class of executed instruction
system.cpu.op_class::IntMult                       15      0.00%     62.32% # Class of executed instruction
system.cpu.op_class::IntDiv                   1004199      1.36%     63.68% # Class of executed instruction
system.cpu.op_class::FloatAdd                     132      0.00%     63.68% # Class of executed instruction
system.cpu.op_class::FloatCmp                       0      0.00%     63.68% # Class of executed instruction
system.cpu.op_class::FloatCvt                       0      0.00%     63.68% # Class of executed instruction
system.cpu.op_class::FloatMult                      0      0.00%     63.68% # Class of executed instruction
system.cpu.op_class::FloatMultAcc                   0      0.00%     63.68% # Class of executed instruction
system.cpu.op_class::FloatDiv                       0      0.00%     63.68% # Class of executed instruction
system.cpu.op_class::FloatMisc                      0      0.00%     63.68% # Class of executed instruction
system.cpu.op_class::FloatSqrt                      0      0.00%     63.68% # Class of executed instruction
system.cpu.op_class::SimdAdd                      348      0.00%     63.68% # Class of executed instruction
system.cpu.op_class::SimdAddAcc                     0      0.00%     63.68% # Class of executed instruction
system.cpu.op_class::SimdAlu                      682      0.00%     63.68% # Class of executed instruction
system.cpu.op_class::SimdCmp                        0      0.00%     63.68% # Class of executed instruction
system.cpu.op_class::SimdCvt                      770      0.00%     63.68% # Class of executed instruction
system.cpu.op_class::SimdMisc                     524      0.00%     63.68% # Class of executed instruction
system.cpu.op_class::SimdMult                       0      0.00%     63.68% # Class of executed instruction
system.cpu.op_class::SimdMultAcc                    0      0.00%     63.68% # Class of executed instruction
system.cpu.op_class::SimdShift                    129      0.00%     63.68% # Class of executed instruction
system.cpu.op_class::SimdShiftAcc                   0      0.00%     63.68% # Class of executed instruction
system.cpu.op_class::SimdSqrt                       0      0.00%     63.68% # Class of executed instruction
system.cpu.op_class::SimdFloatAdd                   0      0.00%     63.68% # Class of executed instruction
system.cpu.op_class::SimdFloatAlu                   0      0.00%     63.68% # Class of executed instruction
system.cpu.op_class::SimdFloatCmp                   0      0.00%     63.68% # Class of executed instruction
system.cpu.op_class::SimdFloatCvt                   0      0.00%     63.68% # Class of executed instruction
system.cpu.op_class::SimdFloatDiv                   0      0.00%     63.68% # Class of executed instruction
system.cpu.op_class::SimdFloatMisc                  0      0.00%     63.68% # Class of executed instruction
system.cpu.op_class::SimdFloatMult                  0      0.00%     63.68% # Class of executed instruction
system.cpu.op_class::SimdFloatMultAcc               0      0.00%     63.68% # Class of executed instruction
system.cpu.op_class::SimdFloatSqrt                  0      0.00%     63.68% # Class of executed instruction
system.cpu.op_class::MemRead                 20997424     28.43%     92.11% # Class of executed instruction
system.cpu.op_class::MemWrite                 5824086      7.89%    100.00% # Class of executed instruction
system.cpu.op_class::FloatMemRead                 972      0.00%    100.00% # Class of executed instruction
system.cpu.op_class::FloatMemWrite                690      0.00%    100.00% # Class of executed instruction
system.cpu.op_class::IprAccess                      0      0.00%    100.00% # Class of executed instruction
system.cpu.op_class::InstPrefetch                   0      0.00%    100.00% # Class of executed instruction
system.cpu.op_class::total                   73858898                       # Class of executed instruction
system.cpu.dcache.tags.pwrStateResidencyTicks::UNDEFINED  93169507000                       # Cumulative time (in ticks) in various power states
system.cpu.dcache.tags.tagsinuse           127.958479                       # Cycle average of tags in use
system.cpu.dcache.tags.total_refs            26823179                       # Total number of references to valid blocks.
system.cpu.dcache.tags.sampled_refs             66525                       # Sample count of references to valid blocks.
system.cpu.dcache.tags.avg_refs            403.204495                       # Average number of references to valid blocks.
system.cpu.dcache.tags.warmup_cycle            759000                       # Cycle when the warmup percentage was hit.
system.cpu.dcache.tags.occ_blocks::cpu.data   127.958479                       # Average occupied blocks per requestor
system.cpu.dcache.tags.occ_percent::cpu.data     0.999676                       # Average percentage of cache occupancy
system.cpu.dcache.tags.occ_percent::total     0.999676                       # Average percentage of cache occupancy
system.cpu.dcache.tags.occ_task_id_blocks::1024          128                       # Occupied blocks per task id
system.cpu.dcache.tags.age_task_id_blocks_1024::0           12                       # Occupied blocks per task id
system.cpu.dcache.tags.age_task_id_blocks_1024::1           39                       # Occupied blocks per task id
system.cpu.dcache.tags.age_task_id_blocks_1024::2           40                       # Occupied blocks per task id
system.cpu.dcache.tags.age_task_id_blocks_1024::3           37                       # Occupied blocks per task id
system.cpu.dcache.tags.occ_task_id_percent::1024            1                       # Percentage of cache occupancy per task id
system.cpu.dcache.tags.tag_accesses          53712883                       # Number of tag accesses
system.cpu.dcache.tags.data_accesses         53712883                       # Number of data accesses
system.cpu.dcache.pwrStateResidencyTicks::UNDEFINED  93169507000                       # Cumulative time (in ticks) in various power states
system.cpu.dcache.ReadReq_hits::cpu.data     20939959                       # number of ReadReq hits
system.cpu.dcache.ReadReq_hits::total        20939959                       # number of ReadReq hits
system.cpu.dcache.WriteReq_hits::cpu.data      5792603                       # number of WriteReq hits
system.cpu.dcache.WriteReq_hits::total        5792603                       # number of WriteReq hits
system.cpu.dcache.demand_hits::cpu.data      26732562                       # number of demand (read+write) hits
system.cpu.dcache.demand_hits::total         26732562                       # number of demand (read+write) hits
system.cpu.dcache.overall_hits::cpu.data     26732562                       # number of overall hits
system.cpu.dcache.overall_hits::total        26732562                       # number of overall hits
system.cpu.dcache.ReadReq_misses::cpu.data        58444                       # number of ReadReq misses
system.cpu.dcache.ReadReq_misses::total         58444                       # number of ReadReq misses
system.cpu.dcache.WriteReq_misses::cpu.data        32173                       # number of WriteReq misses
system.cpu.dcache.WriteReq_misses::total        32173                       # number of WriteReq misses
system.cpu.dcache.demand_misses::cpu.data        90617                       # number of demand (read+write) misses
system.cpu.dcache.demand_misses::total          90617                       # number of demand (read+write) misses
system.cpu.dcache.overall_misses::cpu.data        90617                       # number of overall misses
system.cpu.dcache.overall_misses::total         90617                       # number of overall misses
system.cpu.dcache.ReadReq_miss_latency::cpu.data   5095913500                       # number of ReadReq miss cycles
system.cpu.dcache.ReadReq_miss_latency::total   5095913500                       # number of ReadReq miss cycles
system.cpu.dcache.WriteReq_miss_latency::cpu.data   1786741000                       # number of WriteReq miss cycles
system.cpu.dcache.WriteReq_miss_latency::total   1786741000                       # number of WriteReq miss cycles
system.cpu.dcache.demand_miss_latency::cpu.data   6882654500                       # number of demand (read+write) miss cycles
system.cpu.dcache.demand_miss_latency::total   6882654500                       # number of demand (read+write) miss cycles
system.cpu.dcache.overall_miss_latency::cpu.data   6882654500                       # number of overall miss cycles
system.cpu.dcache.overall_miss_latency::total   6882654500                       # number of overall miss cycles
system.cpu.dcache.ReadReq_accesses::cpu.data     20998403                       # number of ReadReq accesses(hits+misses)
system.cpu.dcache.ReadReq_accesses::total     20998403                       # number of ReadReq accesses(hits+misses)
system.cpu.dcache.WriteReq_accesses::cpu.data      5824776                       # number of WriteReq accesses(hits+misses)
system.cpu.dcache.WriteReq_accesses::total      5824776                       # number of WriteReq accesses(hits+misses)
system.cpu.dcache.demand_accesses::cpu.data     26823179                       # number of demand (read+write) accesses
system.cpu.dcache.demand_accesses::total     26823179                       # number of demand (read+write) accesses
system.cpu.dcache.overall_accesses::cpu.data     26823179                       # number of overall (read+write) accesses
system.cpu.dcache.overall_accesses::total     26823179                       # number of overall (read+write) accesses
system.cpu.dcache.ReadReq_miss_rate::cpu.data     0.002783                       # miss rate for ReadReq accesses
system.cpu.dcache.ReadReq_miss_rate::total     0.002783                       # miss rate for ReadReq accesses
system.cpu.dcache.WriteReq_miss_rate::cpu.data     0.005523                       # miss rate for WriteReq accesses
system.cpu.dcache.WriteReq_miss_rate::total     0.005523                       # miss rate for WriteReq accesses
system.cpu.dcache.demand_miss_rate::cpu.data     0.003378                       # miss rate for demand accesses
system.cpu.dcache.demand_miss_rate::total     0.003378                       # miss rate for demand accesses
system.cpu.dcache.overall_miss_rate::cpu.data     0.003378                       # miss rate for overall accesses
system.cpu.dcache.overall_miss_rate::total     0.003378                       # miss rate for overall accesses
system.cpu.dcache.ReadReq_avg_miss_latency::cpu.data 87193.099377                       # average ReadReq miss latency
system.cpu.dcache.ReadReq_avg_miss_latency::total 87193.099377                       # average ReadReq miss latency
system.cpu.dcache.WriteReq_avg_miss_latency::cpu.data 55535.417897                       # average WriteReq miss latency
system.cpu.dcache.WriteReq_avg_miss_latency::total 55535.417897                       # average WriteReq miss latency
system.cpu.dcache.demand_avg_miss_latency::cpu.data 75953.237251                       # average overall miss latency
system.cpu.dcache.demand_avg_miss_latency::total 75953.237251                       # average overall miss latency
system.cpu.dcache.overall_avg_miss_latency::cpu.data 75953.237251                       # average overall miss latency
system.cpu.dcache.overall_avg_miss_latency::total 75953.237251                       # average overall miss latency
system.cpu.dcache.blocked_cycles::no_mshrs            0                       # number of cycles access was blocked
system.cpu.dcache.blocked_cycles::no_targets            0                       # number of cycles access was blocked
system.cpu.dcache.blocked::no_mshrs                 0                       # number of cycles access was blocked
system.cpu.dcache.blocked::no_targets               0                       # number of cycles access was blocked
system.cpu.dcache.avg_blocked_cycles::no_mshrs          nan                       # average number of cycles each access was blocked
system.cpu.dcache.avg_blocked_cycles::no_targets          nan                       # average number of cycles each access was blocked
system.cpu.dcache.writebacks::writebacks        59867                       # number of writebacks
system.cpu.dcache.writebacks::total             59867                       # number of writebacks
system.cpu.dcache.ReadReq_mshr_misses::cpu.data        58444                       # number of ReadReq MSHR misses
system.cpu.dcache.ReadReq_mshr_misses::total        58444                       # number of ReadReq MSHR misses
system.cpu.dcache.WriteReq_mshr_misses::cpu.data        32173                       # number of WriteReq MSHR misses
system.cpu.dcache.WriteReq_mshr_misses::total        32173                       # number of WriteReq MSHR misses
system.cpu.dcache.demand_mshr_misses::cpu.data        90617                       # number of demand (read+write) MSHR misses
system.cpu.dcache.demand_mshr_misses::total        90617                       # number of demand (read+write) MSHR misses
system.cpu.dcache.overall_mshr_misses::cpu.data        90617                       # number of overall MSHR misses
system.cpu.dcache.overall_mshr_misses::total        90617                       # number of overall MSHR misses
system.cpu.dcache.ReadReq_mshr_miss_latency::cpu.data   5037469500                       # number of ReadReq MSHR miss cycles
system.cpu.dcache.ReadReq_mshr_miss_latency::total   5037469500                       # number of ReadReq MSHR miss cycles
system.cpu.dcache.WriteReq_mshr_miss_latency::cpu.data   1754568000                       # number of WriteReq MSHR miss cycles
system.cpu.dcache.WriteReq_mshr_miss_latency::total   1754568000                       # number of WriteReq MSHR miss cycles
system.cpu.dcache.demand_mshr_miss_latency::cpu.data   6792037500                       # number of demand (read+write) MSHR miss cycles
system.cpu.dcache.demand_mshr_miss_latency::total   6792037500                       # number of demand (read+write) MSHR miss cycles
system.cpu.dcache.overall_mshr_miss_latency::cpu.data   6792037500                       # number of overall MSHR miss cycles
system.cpu.dcache.overall_mshr_miss_latency::total   6792037500                       # number of overall MSHR miss cycles
system.cpu.dcache.ReadReq_mshr_miss_rate::cpu.data     0.002783                       # mshr miss rate for ReadReq accesses
system.cpu.dcache.ReadReq_mshr_miss_rate::total     0.002783                       # mshr miss rate for ReadReq accesses
system.cpu.dcache.WriteReq_mshr_miss_rate::cpu.data     0.005523                       # mshr miss rate for WriteReq accesses
system.cpu.dcache.WriteReq_mshr_miss_rate::total     0.005523                       # mshr miss rate for WriteReq accesses
system.cpu.dcache.demand_mshr_miss_rate::cpu.data     0.003378                       # mshr miss rate for demand accesses
system.cpu.dcache.demand_mshr_miss_rate::total     0.003378                       # mshr miss rate for demand accesses
system.cpu.dcache.overall_mshr_miss_rate::cpu.data     0.003378                       # mshr miss rate for overall accesses
system.cpu.dcache.overall_mshr_miss_rate::total     0.003378                       # mshr miss rate for overall accesses
system.cpu.dcache.ReadReq_avg_mshr_miss_latency::cpu.data 86193.099377                       # average ReadReq mshr miss latency
system.cpu.dcache.ReadReq_avg_mshr_miss_latency::total 86193.099377                       # average ReadReq mshr miss latency
system.cpu.dcache.WriteReq_avg_mshr_miss_latency::cpu.data 54535.417897                       # average WriteReq mshr miss latency
system.cpu.dcache.WriteReq_avg_mshr_miss_latency::total 54535.417897                       # average WriteReq mshr miss latency
system.cpu.dcache.demand_avg_mshr_miss_latency::cpu.data 74953.237251                       # average overall mshr miss latency
system.cpu.dcache.demand_avg_mshr_miss_latency::total 74953.237251                       # average overall mshr miss latency
system.cpu.dcache.overall_avg_mshr_miss_latency::cpu.data 74953.237251                       # average overall mshr miss latency
system.cpu.dcache.overall_avg_mshr_miss_latency::total 74953.237251                       # average overall mshr miss latency
system.cpu.dcache.replacements                  66397                       # number of replacements
system.cpu.dtb_walker_cache.tags.pwrStateResidencyTicks::UNDEFINED  93169507000                       # Cumulative time (in ticks) in various power states
system.cpu.dtb_walker_cache.tags.tagsinuse            0                       # Cycle average of tags in use
system.cpu.dtb_walker_cache.tags.total_refs            0                       # Total number of references to valid blocks.
system.cpu.dtb_walker_cache.tags.sampled_refs            0                       # Sample count of references to valid blocks.
system.cpu.dtb_walker_cache.tags.avg_refs          nan                       # Average number of references to valid blocks.
system.cpu.dtb_walker_cache.tags.warmup_cycle            0                       # Cycle when the warmup percentage was hit.
system.cpu.dtb_walker_cache.tags.tag_accesses            0                       # Number of tag accesses
system.cpu.dtb_walker_cache.tags.data_accesses            0                       # Number of data accesses
system.cpu.dtb_walker_cache.pwrStateResidencyTicks::UNDEFINED  93169507000                       # Cumulative time (in ticks) in various power states
system.cpu.dtb_walker_cache.blocked_cycles::no_mshrs            0                       # number of cycles access was blocked
system.cpu.dtb_walker_cache.blocked_cycles::no_targets            0                       # number of cycles access was blocked
system.cpu.dtb_walker_cache.blocked::no_mshrs            0                       # number of cycles access was blocked
system.cpu.dtb_walker_cache.blocked::no_targets            0                       # number of cycles access was blocked
system.cpu.dtb_walker_cache.avg_blocked_cycles::no_mshrs          nan                       # average number of cycles each access was blocked
system.cpu.dtb_walker_cache.avg_blocked_cycles::no_targets          nan                       # average number of cycles each access was blocked
system.cpu.dtb_walker_cache.replacements            0                       # number of replacements
system.cpu.icache.tags.pwrStateResidencyTicks::UNDEFINED  93169507000                       # Cumulative time (in ticks) in various power states
system.cpu.icache.tags.tagsinuse           127.951378                       # Cycle average of tags in use
system.cpu.icache.tags.total_refs            59428522                       # Total number of references to valid blocks.
system.cpu.icache.tags.sampled_refs               948                       # Sample count of references to valid blocks.
system.cpu.icache.tags.avg_refs          62688.314346                       # Average number of references to valid blocks.
system.cpu.icache.tags.warmup_cycle            439000                       # Cycle when the warmup percentage was hit.
system.cpu.icache.tags.occ_blocks::cpu.inst   127.951378                       # Average occupied blocks per requestor
system.cpu.icache.tags.occ_percent::cpu.inst     0.999620                       # Average percentage of cache occupancy
system.cpu.icache.tags.occ_percent::total     0.999620                       # Average percentage of cache occupancy
system.cpu.icache.tags.occ_task_id_blocks::1024          128                       # Occupied blocks per task id
system.cpu.icache.tags.age_task_id_blocks_1024::0           18                       # Occupied blocks per task id
system.cpu.icache.tags.age_task_id_blocks_1024::1           48                       # Occupied blocks per task id
system.cpu.icache.tags.age_task_id_blocks_1024::4           62                       # Occupied blocks per task id
system.cpu.icache.tags.occ_task_id_percent::1024            1                       # Percentage of cache occupancy per task id
system.cpu.icache.tags.tag_accesses         118857992                       # Number of tag accesses
system.cpu.icache.tags.data_accesses        118857992                       # Number of data accesses
system.cpu.icache.pwrStateResidencyTicks::UNDEFINED  93169507000                       # Cumulative time (in ticks) in various power states
system.cpu.icache.ReadReq_hits::cpu.inst     59427574                       # number of ReadReq hits
system.cpu.icache.ReadReq_hits::total        59427574                       # number of ReadReq hits
system.cpu.icache.demand_hits::cpu.inst      59427574                       # number of demand (read+write) hits
system.cpu.icache.demand_hits::total         59427574                       # number of demand (read+write) hits
system.cpu.icache.overall_hits::cpu.inst     59427574                       # number of overall hits
system.cpu.icache.overall_hits::total        59427574                       # number of overall hits
system.cpu.icache.ReadReq_misses::cpu.inst          948                       # number of ReadReq misses
system.cpu.icache.ReadReq_misses::total           948                       # number of ReadReq misses
system.cpu.icache.demand_misses::cpu.inst          948                       # number of demand (read+write) misses
system.cpu.icache.demand_misses::total            948                       # number of demand (read+write) misses
system.cpu.icache.overall_misses::cpu.inst          948                       # number of overall misses
system.cpu.icache.overall_misses::total           948                       # number of overall misses
system.cpu.icache.ReadReq_miss_latency::cpu.inst    127068000                       # number of ReadReq miss cycles
system.cpu.icache.ReadReq_miss_latency::total    127068000                       # number of ReadReq miss cycles
system.cpu.icache.demand_miss_latency::cpu.inst    127068000                       # number of demand (read+write) miss cycles
system.cpu.icache.demand_miss_latency::total    127068000                       # number of demand (read+write) miss cycles
system.cpu.icache.overall_miss_latency::cpu.inst    127068000                       # number of overall miss cycles
system.cpu.icache.overall_miss_latency::total    127068000                       # number of overall miss cycles
system.cpu.icache.ReadReq_accesses::cpu.inst     59428522                       # number of ReadReq accesses(hits+misses)
system.cpu.icache.ReadReq_accesses::total     59428522                       # number of ReadReq accesses(hits+misses)
system.cpu.icache.demand_accesses::cpu.inst     59428522                       # number of demand (read+write) accesses
system.cpu.icache.demand_accesses::total     59428522                       # number of demand (read+write) accesses
system.cpu.icache.overall_accesses::cpu.inst     59428522                       # number of overall (read+write) accesses
system.cpu.icache.overall_accesses::total     59428522                       # number of overall (read+write) accesses
system.cpu.icache.ReadReq_miss_rate::cpu.inst     0.000016                       # miss rate for ReadReq accesses
system.cpu.icache.ReadReq_miss_rate::total     0.000016                       # miss rate for ReadReq accesses
system.cpu.icache.demand_miss_rate::cpu.inst     0.000016                       # miss rate for demand accesses
system.cpu.icache.demand_miss_rate::total     0.000016                       # miss rate for demand accesses
system.cpu.icache.overall_miss_rate::cpu.inst     0.000016                       # miss rate for overall accesses
system.cpu.icache.overall_miss_rate::total     0.000016                       # miss rate for overall accesses
system.cpu.icache.ReadReq_avg_miss_latency::cpu.inst 134037.974684                       # average ReadReq miss latency
system.cpu.icache.ReadReq_avg_miss_latency::total 134037.974684                       # average ReadReq miss latency
system.cpu.icache.demand_avg_miss_latency::cpu.inst 134037.974684                       # average overall miss latency
system.cpu.icache.demand_avg_miss_latency::total 134037.974684                       # average overall miss latency
system.cpu.icache.overall_avg_miss_latency::cpu.inst 134037.974684                       # average overall miss latency
system.cpu.icache.overall_avg_miss_latency::total 134037.974684                       # average overall miss latency
system.cpu.icache.blocked_cycles::no_mshrs            0                       # number of cycles access was blocked
system.cpu.icache.blocked_cycles::no_targets            0                       # number of cycles access was blocked
system.cpu.icache.blocked::no_mshrs                 0                       # number of cycles access was blocked
system.cpu.icache.blocked::no_targets               0                       # number of cycles access was blocked
system.cpu.icache.avg_blocked_cycles::no_mshrs          nan                       # average number of cycles each access was blocked
system.cpu.icache.avg_blocked_cycles::no_targets          nan                       # average number of cycles each access was blocked
system.cpu.icache.writebacks::writebacks          820                       # number of writebacks
system.cpu.icache.writebacks::total               820                       # number of writebacks
system.cpu.icache.ReadReq_mshr_misses::cpu.inst          948                       # number of ReadReq MSHR misses
system.cpu.icache.ReadReq_mshr_misses::total          948                       # number of ReadReq MSHR misses
system.cpu.icache.demand_mshr_misses::cpu.inst          948                       # number of demand (read+write) MSHR misses
system.cpu.icache.demand_mshr_misses::total          948                       # number of demand (read+write) MSHR misses
system.cpu.icache.overall_mshr_misses::cpu.inst          948                       # number of overall MSHR misses
system.cpu.icache.overall_mshr_misses::total          948                       # number of overall MSHR misses
system.cpu.icache.ReadReq_mshr_miss_latency::cpu.inst    126120000                       # number of ReadReq MSHR miss cycles
system.cpu.icache.ReadReq_mshr_miss_latency::total    126120000                       # number of ReadReq MSHR miss cycles
system.cpu.icache.demand_mshr_miss_latency::cpu.inst    126120000                       # number of demand (read+write) MSHR miss cycles
system.cpu.icache.demand_mshr_miss_latency::total    126120000                       # number of demand (read+write) MSHR miss cycles
system.cpu.icache.overall_mshr_miss_latency::cpu.inst    126120000                       # number of overall MSHR miss cycles
system.cpu.icache.overall_mshr_miss_latency::total    126120000                       # number of overall MSHR miss cycles
system.cpu.icache.ReadReq_mshr_miss_rate::cpu.inst     0.000016                       # mshr miss rate for ReadReq accesses
system.cpu.icache.ReadReq_mshr_miss_rate::total     0.000016                       # mshr miss rate for ReadReq accesses
system.cpu.icache.demand_mshr_miss_rate::cpu.inst     0.000016                       # mshr miss rate for demand accesses
system.cpu.icache.demand_mshr_miss_rate::total     0.000016                       # mshr miss rate for demand accesses
system.cpu.icache.overall_mshr_miss_rate::cpu.inst     0.000016                       # mshr miss rate for overall accesses
system.cpu.icache.overall_mshr_miss_rate::total     0.000016                       # mshr miss rate for overall accesses
system.cpu.icache.ReadReq_avg_mshr_miss_latency::cpu.inst 133037.974684                       # average ReadReq mshr miss latency
system.cpu.icache.ReadReq_avg_mshr_miss_latency::total 133037.974684                       # average ReadReq mshr miss latency
system.cpu.icache.demand_avg_mshr_miss_latency::cpu.inst 133037.974684                       # average overall mshr miss latency
system.cpu.icache.demand_avg_mshr_miss_latency::total 133037.974684                       # average overall mshr miss latency
system.cpu.icache.overall_avg_mshr_miss_latency::cpu.inst 133037.974684                       # average overall mshr miss latency
system.cpu.icache.overall_avg_mshr_miss_latency::total 133037.974684                       # average overall mshr miss latency
system.cpu.icache.replacements                    820                       # number of replacements
system.cpu.itb_walker_cache.tags.pwrStateResidencyTicks::UNDEFINED  93169507000                       # Cumulative time (in ticks) in various power states
system.cpu.itb_walker_cache.tags.tagsinuse            0                       # Cycle average of tags in use
system.cpu.itb_walker_cache.tags.total_refs            0                       # Total number of references to valid blocks.
system.cpu.itb_walker_cache.tags.sampled_refs            0                       # Sample count of references to valid blocks.
system.cpu.itb_walker_cache.tags.avg_refs          nan                       # Average number of references to valid blocks.
system.cpu.itb_walker_cache.tags.warmup_cycle            0                       # Cycle when the warmup percentage was hit.
system.cpu.itb_walker_cache.tags.tag_accesses            0                       # Number of tag accesses
system.cpu.itb_walker_cache.tags.data_accesses            0                       # Number of data accesses
system.cpu.itb_walker_cache.pwrStateResidencyTicks::UNDEFINED  93169507000                       # Cumulative time (in ticks) in various power states
system.cpu.itb_walker_cache.blocked_cycles::no_mshrs            0                       # number of cycles access was blocked
system.cpu.itb_walker_cache.blocked_cycles::no_targets            0                       # number of cycles access was blocked
system.cpu.itb_walker_cache.blocked::no_mshrs            0                       # number of cycles access was blocked
system.cpu.itb_walker_cache.blocked::no_targets            0                       # number of cycles access was blocked
system.cpu.itb_walker_cache.avg_blocked_cycles::no_mshrs          nan                       # average number of cycles each access was blocked
system.cpu.itb_walker_cache.avg_blocked_cycles::no_targets          nan                       # average number of cycles each access was blocked
system.cpu.itb_walker_cache.replacements            0                       # number of replacements
system.l2.tags.pwrStateResidencyTicks::UNDEFINED  93169507000                       # Cumulative time (in ticks) in various power states
system.l2.tags.tagsinuse                   511.720951                       # Cycle average of tags in use
system.l2.tags.total_refs                      158708                       # Total number of references to valid blocks.
system.l2.tags.sampled_refs                     48421                       # Sample count of references to valid blocks.
system.l2.tags.avg_refs                      3.277669                       # Average number of references to valid blocks.
system.l2.tags.warmup_cycle                    428500                       # Cycle when the warmup percentage was hit.
system.l2.tags.occ_blocks::writebacks        1.941172                       # Average occupied blocks per requestor
system.l2.tags.occ_blocks::cpu.inst          1.117761                       # Average occupied blocks per requestor
system.l2.tags.occ_blocks::cpu.data        508.662018                       # Average occupied blocks per requestor
system.l2.tags.occ_percent::writebacks       0.003791                       # Average percentage of cache occupancy
system.l2.tags.occ_percent::cpu.inst         0.002183                       # Average percentage of cache occupancy
system.l2.tags.occ_percent::cpu.data         0.993481                       # Average percentage of cache occupancy
system.l2.tags.occ_percent::total            0.999455                       # Average percentage of cache occupancy
system.l2.tags.occ_task_id_blocks::1024           512                       # Occupied blocks per task id
system.l2.tags.age_task_id_blocks_1024::0           44                       # Occupied blocks per task id
system.l2.tags.age_task_id_blocks_1024::1          148                       # Occupied blocks per task id
system.l2.tags.age_task_id_blocks_1024::2           35                       # Occupied blocks per task id
system.l2.tags.age_task_id_blocks_1024::3          272                       # Occupied blocks per task id
system.l2.tags.age_task_id_blocks_1024::4           13                       # Occupied blocks per task id
system.l2.tags.occ_task_id_percent::1024            1                       # Percentage of cache occupancy per task id
system.l2.tags.tag_accesses                   1318677                       # Number of tag accesses
system.l2.tags.data_accesses                  1318677                       # Number of data accesses
system.l2.pwrStateResidencyTicks::UNDEFINED  93169507000                       # Cumulative time (in ticks) in various power states
system.l2.WritebackDirty_hits::writebacks        59867                       # number of WritebackDirty hits
system.l2.WritebackDirty_hits::total            59867                       # number of WritebackDirty hits
system.l2.WritebackClean_hits::writebacks          820                       # number of WritebackClean hits
system.l2.WritebackClean_hits::total              820                       # number of WritebackClean hits
system.l2.UpgradeReq_hits::cpu.data             24092                       # number of UpgradeReq hits
system.l2.UpgradeReq_hits::total                24092                       # number of UpgradeReq hits
system.l2.ReadExReq_hits::cpu.data               1070                       # number of ReadExReq hits
system.l2.ReadExReq_hits::total                  1070                       # number of ReadExReq hits
system.l2.ReadCleanReq_hits::cpu.inst             175                       # number of ReadCleanReq hits
system.l2.ReadCleanReq_hits::total                175                       # number of ReadCleanReq hits
system.l2.ReadSharedReq_hits::cpu.data          18276                       # number of ReadSharedReq hits
system.l2.ReadSharedReq_hits::total             18276                       # number of ReadSharedReq hits
system.l2.demand_hits::cpu.inst                   175                       # number of demand (read+write) hits
system.l2.demand_hits::cpu.data                 19346                       # number of demand (read+write) hits
system.l2.demand_hits::total                    19521                       # number of demand (read+write) hits
system.l2.overall_hits::cpu.inst                  175                       # number of overall hits
system.l2.overall_hits::cpu.data                19346                       # number of overall hits
system.l2.overall_hits::total                   19521                       # number of overall hits
system.l2.ReadExReq_misses::cpu.data             7011                       # number of ReadExReq misses
system.l2.ReadExReq_misses::total                7011                       # number of ReadExReq misses
system.l2.ReadCleanReq_misses::cpu.inst           773                       # number of ReadCleanReq misses
system.l2.ReadCleanReq_misses::total              773                       # number of ReadCleanReq misses
system.l2.ReadSharedReq_misses::cpu.data        40168                       # number of ReadSharedReq misses
system.l2.ReadSharedReq_misses::total           40168                       # number of ReadSharedReq misses
system.l2.demand_misses::cpu.inst                 773                       # number of demand (read+write) misses
system.l2.demand_misses::cpu.data               47179                       # number of demand (read+write) misses
system.l2.demand_misses::total                  47952                       # number of demand (read+write) misses
system.l2.overall_misses::cpu.inst                773                       # number of overall misses
system.l2.overall_misses::cpu.data              47179                       # number of overall misses
system.l2.overall_misses::total                 47952                       # number of overall misses
system.l2.ReadExReq_miss_latency::cpu.data   1442099500                       # number of ReadExReq miss cycles
system.l2.ReadExReq_miss_latency::total    1442099500                       # number of ReadExReq miss cycles
system.l2.ReadCleanReq_miss_latency::cpu.inst    122850500                       # number of ReadCleanReq miss cycles
system.l2.ReadCleanReq_miss_latency::total    122850500                       # number of ReadCleanReq miss cycles
system.l2.ReadSharedReq_miss_latency::cpu.data   4757886500                       # number of ReadSharedReq miss cycles
system.l2.ReadSharedReq_miss_latency::total   4757886500                       # number of ReadSharedReq miss cycles
system.l2.demand_miss_latency::cpu.inst     122850500                       # number of demand (read+write) miss cycles
system.l2.demand_miss_latency::cpu.data    6199986000                       # number of demand (read+write) miss cycles
system.l2.demand_miss_latency::total       6322836500                       # number of demand (read+write) miss cycles
system.l2.overall_miss_latency::cpu.inst    122850500                       # number of overall miss cycles
system.l2.overall_miss_latency::cpu.data   6199986000                       # number of overall miss cycles
system.l2.overall_miss_latency::total      6322836500                       # number of overall miss cycles
system.l2.WritebackDirty_accesses::writebacks        59867                       # number of WritebackDirty accesses(hits+misses)
system.l2.WritebackDirty_accesses::total        59867                       # number of WritebackDirty accesses(hits+misses)
system.l2.WritebackClean_accesses::writebacks          820                       # number of WritebackClean accesses(hits+misses)
system.l2.WritebackClean_accesses::total          820                       # number of WritebackClean accesses(hits+misses)
system.l2.UpgradeReq_accesses::cpu.data         24092                       # number of UpgradeReq accesses(hits+misses)
system.l2.UpgradeReq_accesses::total            24092                       # number of UpgradeReq accesses(hits+misses)
system.l2.ReadExReq_accesses::cpu.data           8081                       # number of ReadExReq accesses(hits+misses)
system.l2.ReadExReq_accesses::total              8081                       # number of ReadExReq accesses(hits+misses)
system.l2.ReadCleanReq_accesses::cpu.inst          948                       # number of ReadCleanReq accesses(hits+misses)
system.l2.ReadCleanReq_accesses::total            948                       # number of ReadCleanReq accesses(hits+misses)
system.l2.ReadSharedReq_accesses::cpu.data        58444                       # number of ReadSharedReq accesses(hits+misses)
system.l2.ReadSharedReq_accesses::total         58444                       # number of ReadSharedReq accesses(hits+misses)
system.l2.demand_accesses::cpu.inst               948                       # number of demand (read+write) accesses
system.l2.demand_accesses::cpu.data             66525                       # number of demand (read+write) accesses
system.l2.demand_accesses::total                67473                       # number of demand (read+write) accesses
system.l2.overall_accesses::cpu.inst              948                       # number of overall (read+write) accesses
system.l2.overall_accesses::cpu.data            66525                       # number of overall (read+write) accesses
system.l2.overall_accesses::total               67473                       # number of overall (read+write) accesses
system.l2.ReadExReq_miss_rate::cpu.data      0.867591                       # miss rate for ReadExReq accesses
system.l2.ReadExReq_miss_rate::total         0.867591                       # miss rate for ReadExReq accesses
system.l2.ReadCleanReq_miss_rate::cpu.inst     0.815401                       # miss rate for ReadCleanReq accesses
system.l2.ReadCleanReq_miss_rate::total      0.815401                       # miss rate for ReadCleanReq accesses
system.l2.ReadSharedReq_miss_rate::cpu.data     0.687290                       # miss rate for ReadSharedReq accesses
system.l2.ReadSharedReq_miss_rate::total     0.687290                       # miss rate for ReadSharedReq accesses
system.l2.demand_miss_rate::cpu.inst         0.815401                       # miss rate for demand accesses
system.l2.demand_miss_rate::cpu.data         0.709192                       # miss rate for demand accesses
system.l2.demand_miss_rate::total            0.710684                       # miss rate for demand accesses
system.l2.overall_miss_rate::cpu.inst        0.815401                       # miss rate for overall accesses
system.l2.overall_miss_rate::cpu.data        0.709192                       # miss rate for overall accesses
system.l2.overall_miss_rate::total           0.710684                       # miss rate for overall accesses
system.l2.ReadExReq_avg_miss_latency::cpu.data 205690.985594                       # average ReadExReq miss latency
system.l2.ReadExReq_avg_miss_latency::total 205690.985594                       # average ReadExReq miss latency
system.l2.ReadCleanReq_avg_miss_latency::cpu.inst 158926.908150                       # average ReadCleanReq miss latency
system.l2.ReadCleanReq_avg_miss_latency::total 158926.908150                       # average ReadCleanReq miss latency
system.l2.ReadSharedReq_avg_miss_latency::cpu.data 118449.673870                       # average ReadSharedReq miss latency
system.l2.ReadSharedReq_avg_miss_latency::total 118449.673870                       # average ReadSharedReq miss latency
system.l2.demand_avg_miss_latency::cpu.inst 158926.908150                       # average overall miss latency
system.l2.demand_avg_miss_latency::cpu.data 131414.103733                       # average overall miss latency
system.l2.demand_avg_miss_latency::total 131857.618035                       # average overall miss latency
system.l2.overall_avg_miss_latency::cpu.inst 158926.908150                       # average overall miss latency
system.l2.overall_avg_miss_latency::cpu.data 131414.103733                       # average overall miss latency
system.l2.overall_avg_miss_latency::total 131857.618035                       # average overall miss latency
system.l2.blocked_cycles::no_mshrs                  0                       # number of cycles access was blocked
system.l2.blocked_cycles::no_targets                0                       # number of cycles access was blocked
system.l2.blocked::no_mshrs                         0                       # number of cycles access was blocked
system.l2.blocked::no_targets                       0                       # number of cycles access was blocked
system.l2.avg_blocked_cycles::no_mshrs            nan                       # average number of cycles each access was blocked
system.l2.avg_blocked_cycles::no_targets          nan                       # average number of cycles each access was blocked
system.l2.writebacks::writebacks                45303                       # number of writebacks
system.l2.writebacks::total                     45303                       # number of writebacks
system.l2.CleanEvict_mshr_misses::writebacks           74                       # number of CleanEvict MSHR misses
system.l2.CleanEvict_mshr_misses::total            74                       # number of CleanEvict MSHR misses
system.l2.ReadExReq_mshr_misses::cpu.data         7011                       # number of ReadExReq MSHR misses
system.l2.ReadExReq_mshr_misses::total           7011                       # number of ReadExReq MSHR misses
system.l2.ReadCleanReq_mshr_misses::cpu.inst          773                       # number of ReadCleanReq MSHR misses
system.l2.ReadCleanReq_mshr_misses::total          773                       # number of ReadCleanReq MSHR misses
system.l2.ReadSharedReq_mshr_misses::cpu.data        40168                       # number of ReadSharedReq MSHR misses
system.l2.ReadSharedReq_mshr_misses::total        40168                       # number of ReadSharedReq MSHR misses
system.l2.demand_mshr_misses::cpu.inst            773                       # number of demand (read+write) MSHR misses
system.l2.demand_mshr_misses::cpu.data          47179                       # number of demand (read+write) MSHR misses
system.l2.demand_mshr_misses::total             47952                       # number of demand (read+write) MSHR misses
system.l2.overall_mshr_misses::cpu.inst           773                       # number of overall MSHR misses
system.l2.overall_mshr_misses::cpu.data         47179                       # number of overall MSHR misses
system.l2.overall_mshr_misses::total            47952                       # number of overall MSHR misses
system.l2.ReadExReq_mshr_miss_latency::cpu.data   1371989500                       # number of ReadExReq MSHR miss cycles
system.l2.ReadExReq_mshr_miss_latency::total   1371989500                       # number of ReadExReq MSHR miss cycles
system.l2.ReadCleanReq_mshr_miss_latency::cpu.inst    115120500                       # number of ReadCleanReq MSHR miss cycles
system.l2.ReadCleanReq_mshr_miss_latency::total    115120500                       # number of ReadCleanReq MSHR miss cycles
system.l2.ReadSharedReq_mshr_miss_latency::cpu.data   4356206500                       # number of ReadSharedReq MSHR miss cycles
system.l2.ReadSharedReq_mshr_miss_latency::total   4356206500                       # number of ReadSharedReq MSHR miss cycles
system.l2.demand_mshr_miss_latency::cpu.inst    115120500                       # number of demand (read+write) MSHR miss cycles
system.l2.demand_mshr_miss_latency::cpu.data   5728196000                       # number of demand (read+write) MSHR miss cycles
system.l2.demand_mshr_miss_latency::total   5843316500                       # number of demand (read+write) MSHR miss cycles
system.l2.overall_mshr_miss_latency::cpu.inst    115120500                       # number of overall MSHR miss cycles
system.l2.overall_mshr_miss_latency::cpu.data   5728196000                       # number of overall MSHR miss cycles
system.l2.overall_mshr_miss_latency::total   5843316500                       # number of overall MSHR miss cycles
system.l2.CleanEvict_mshr_miss_rate::writebacks          inf                       # mshr miss rate for CleanEvict accesses
system.l2.CleanEvict_mshr_miss_rate::total          inf                       # mshr miss rate for CleanEvict accesses
system.l2.ReadExReq_mshr_miss_rate::cpu.data     0.867591                       # mshr miss rate for ReadExReq accesses
system.l2.ReadExReq_mshr_miss_rate::total     0.867591                       # mshr miss rate for ReadExReq accesses
system.l2.ReadCleanReq_mshr_miss_rate::cpu.inst     0.815401                       # mshr miss rate for ReadCleanReq accesses
system.l2.ReadCleanReq_mshr_miss_rate::total     0.815401                       # mshr miss rate for ReadCleanReq accesses
system.l2.ReadSharedReq_mshr_miss_rate::cpu.data     0.687290                       # mshr miss rate for ReadSharedReq accesses
system.l2.ReadSharedReq_mshr_miss_rate::total     0.687290                       # mshr miss rate for ReadSharedReq accesses
system.l2.demand_mshr_miss_rate::cpu.inst     0.815401                       # mshr miss rate for demand accesses
system.l2.demand_mshr_miss_rate::cpu.data     0.709192                       # mshr miss rate for demand accesses
system.l2.demand_mshr_miss_rate::total       0.710684                       # mshr miss rate for demand accesses
system.l2.overall_mshr_miss_rate::cpu.inst     0.815401                       # mshr miss rate for overall accesses
system.l2.overall_mshr_miss_rate::cpu.data     0.709192                       # mshr miss rate for overall accesses
system.l2.overall_mshr_miss_rate::total      0.710684                       # mshr miss rate for overall accesses
system.l2.ReadExReq_avg_mshr_miss_latency::cpu.data 195690.985594                       # average ReadExReq mshr miss latency
system.l2.ReadExReq_avg_mshr_miss_latency::total 195690.985594                       # average ReadExReq mshr miss latency
system.l2.ReadCleanReq_avg_mshr_miss_latency::cpu.inst 148926.908150                       # average ReadCleanReq mshr miss latency
system.l2.ReadCleanReq_avg_mshr_miss_latency::total 148926.908150                       # average ReadCleanReq mshr miss latency
system.l2.ReadSharedReq_avg_mshr_miss_latency::cpu.data 108449.673870                       # average ReadSharedReq mshr miss latency
system.l2.ReadSharedReq_avg_mshr_miss_latency::total 108449.673870                       # average ReadSharedReq mshr miss latency
system.l2.demand_avg_mshr_miss_latency::cpu.inst 148926.908150                       # average overall mshr miss latency
system.l2.demand_avg_mshr_miss_latency::cpu.data 121414.103733                       # average overall mshr miss latency
system.l2.demand_avg_mshr_miss_latency::total 121857.618035                       # average overall mshr miss latency
system.l2.overall_avg_mshr_miss_latency::cpu.inst 148926.908150                       # average overall mshr miss latency
system.l2.overall_avg_mshr_miss_latency::cpu.data 121414.103733                       # average overall mshr miss latency
system.l2.overall_avg_mshr_miss_latency::total 121857.618035                       # average overall mshr miss latency
system.l2.replacements                          47909                       # number of replacements
system.l3.tags.pwrStateResidencyTicks::UNDEFINED  93169507000                       # Cumulative time (in ticks) in various power states
system.l3.tags.tagsinuse                  4041.554663                       # Cycle average of tags in use
system.l3.tags.total_refs                       95337                       # Total number of references to valid blocks.
system.l3.tags.sampled_refs                     18296                       # Sample count of references to valid blocks.
system.l3.tags.avg_refs                      5.210811                       # Average number of references to valid blocks.
system.l3.tags.warmup_cycle                    418000                       # Cycle when the warmup percentage was hit.
system.l3.tags.occ_blocks::writebacks        1.733290                       # Average occupied blocks per requestor
system.l3.tags.occ_blocks::cpu.inst         43.368366                       # Average occupied blocks per requestor
system.l3.tags.occ_blocks::cpu.data       3996.453007                       # Average occupied blocks per requestor
system.l3.tags.occ_percent::writebacks       0.000423                       # Average percentage of cache occupancy
system.l3.tags.occ_percent::cpu.inst         0.010588                       # Average percentage of cache occupancy
system.l3.tags.occ_percent::cpu.data         0.975697                       # Average percentage of cache occupancy
system.l3.tags.occ_percent::total            0.986708                       # Average percentage of cache occupancy
system.l3.tags.occ_task_id_blocks::1024          4096                       # Occupied blocks per task id
system.l3.tags.age_task_id_blocks_1024::0           29                       # Occupied blocks per task id
system.l3.tags.age_task_id_blocks_1024::1           95                       # Occupied blocks per task id
system.l3.tags.age_task_id_blocks_1024::3            2                       # Occupied blocks per task id
system.l3.tags.age_task_id_blocks_1024::4         3970                       # Occupied blocks per task id
system.l3.tags.occ_task_id_percent::1024            1                       # Percentage of cache occupancy per task id
system.l3.tags.tag_accesses                   1543768                       # Number of tag accesses
system.l3.tags.data_accesses                  1543768                       # Number of data accesses
system.l3.pwrStateResidencyTicks::UNDEFINED  93169507000                       # Cumulative time (in ticks) in various power states
system.l3.WritebackDirty_hits::writebacks        45303                       # number of WritebackDirty hits
system.l3.WritebackDirty_hits::total            45303                       # number of WritebackDirty hits
system.l3.ReadExReq_hits::cpu.data                249                       # number of ReadExReq hits
system.l3.ReadExReq_hits::total                   249                       # number of ReadExReq hits
system.l3.ReadSharedReq_hits::cpu.inst             30                       # number of ReadSharedReq hits
system.l3.ReadSharedReq_hits::cpu.data          29386                       # number of ReadSharedReq hits
system.l3.ReadSharedReq_hits::total             29416                       # number of ReadSharedReq hits
system.l3.demand_hits::cpu.inst                    30                       # number of demand (read+write) hits
system.l3.demand_hits::cpu.data                 29635                       # number of demand (read+write) hits
system.l3.demand_hits::total                    29665                       # number of demand (read+write) hits
system.l3.overall_hits::cpu.inst                   30                       # number of overall hits
system.l3.overall_hits::cpu.data                29635                       # number of overall hits
system.l3.overall_hits::total                   29665                       # number of overall hits
system.l3.ReadExReq_misses::cpu.data             6762                       # number of ReadExReq misses
system.l3.ReadExReq_misses::total                6762                       # number of ReadExReq misses
system.l3.ReadSharedReq_misses::cpu.inst          743                       # number of ReadSharedReq misses
system.l3.ReadSharedReq_misses::cpu.data        10782                       # number of ReadSharedReq misses
system.l3.ReadSharedReq_misses::total           11525                       # number of ReadSharedReq misses
system.l3.demand_misses::cpu.inst                 743                       # number of demand (read+write) misses
system.l3.demand_misses::cpu.data               17544                       # number of demand (read+write) misses
system.l3.demand_misses::total                  18287                       # number of demand (read+write) misses
system.l3.overall_misses::cpu.inst                743                       # number of overall misses
system.l3.overall_misses::cpu.data              17544                       # number of overall misses
system.l3.overall_misses::total                 18287                       # number of overall misses
system.l3.ReadExReq_miss_latency::cpu.data   1292254000                       # number of ReadExReq miss cycles
system.l3.ReadExReq_miss_latency::total    1292254000                       # number of ReadExReq miss cycles
system.l3.ReadSharedReq_miss_latency::cpu.inst    106302500                       # number of ReadSharedReq miss cycles
system.l3.ReadSharedReq_miss_latency::cpu.data   3605805500                       # number of ReadSharedReq miss cycles
system.l3.ReadSharedReq_miss_latency::total   3712108000                       # number of ReadSharedReq miss cycles
system.l3.demand_miss_latency::cpu.inst     106302500                       # number of demand (read+write) miss cycles
system.l3.demand_miss_latency::cpu.data    4898059500                       # number of demand (read+write) miss cycles
system.l3.demand_miss_latency::total       5004362000                       # number of demand (read+write) miss cycles
system.l3.overall_miss_latency::cpu.inst    106302500                       # number of overall miss cycles
system.l3.overall_miss_latency::cpu.data   4898059500                       # number of overall miss cycles
system.l3.overall_miss_latency::total      5004362000                       # number of overall miss cycles
system.l3.WritebackDirty_accesses::writebacks        45303                       # number of WritebackDirty accesses(hits+misses)
system.l3.WritebackDirty_accesses::total        45303                       # number of WritebackDirty accesses(hits+misses)
system.l3.ReadExReq_accesses::cpu.data           7011                       # number of ReadExReq accesses(hits+misses)
system.l3.ReadExReq_accesses::total              7011                       # number of ReadExReq accesses(hits+misses)
system.l3.ReadSharedReq_accesses::cpu.inst          773                       # number of ReadSharedReq accesses(hits+misses)
system.l3.ReadSharedReq_accesses::cpu.data        40168                       # number of ReadSharedReq accesses(hits+misses)
system.l3.ReadSharedReq_accesses::total         40941                       # number of ReadSharedReq accesses(hits+misses)
system.l3.demand_accesses::cpu.inst               773                       # number of demand (read+write) accesses
system.l3.demand_accesses::cpu.data             47179                       # number of demand (read+write) accesses
system.l3.demand_accesses::total                47952                       # number of demand (read+write) accesses
system.l3.overall_accesses::cpu.inst              773                       # number of overall (read+write) accesses
system.l3.overall_accesses::cpu.data            47179                       # number of overall (read+write) accesses
system.l3.overall_accesses::total               47952                       # number of overall (read+write) accesses
system.l3.ReadExReq_miss_rate::cpu.data      0.964484                       # miss rate for ReadExReq accesses
system.l3.ReadExReq_miss_rate::total         0.964484                       # miss rate for ReadExReq accesses
system.l3.ReadSharedReq_miss_rate::cpu.inst     0.961190                       # miss rate for ReadSharedReq accesses
system.l3.ReadSharedReq_miss_rate::cpu.data     0.268423                       # miss rate for ReadSharedReq accesses
system.l3.ReadSharedReq_miss_rate::total     0.281503                       # miss rate for ReadSharedReq accesses
system.l3.demand_miss_rate::cpu.inst         0.961190                       # miss rate for demand accesses
system.l3.demand_miss_rate::cpu.data         0.371860                       # miss rate for demand accesses
system.l3.demand_miss_rate::total            0.381361                       # miss rate for demand accesses
system.l3.overall_miss_rate::cpu.inst        0.961190                       # miss rate for overall accesses
system.l3.overall_miss_rate::cpu.data        0.371860                       # miss rate for overall accesses
system.l3.overall_miss_rate::total           0.381361                       # miss rate for overall accesses
system.l3.ReadExReq_avg_miss_latency::cpu.data 191105.294292                       # average ReadExReq miss latency
system.l3.ReadExReq_avg_miss_latency::total 191105.294292                       # average ReadExReq miss latency
system.l3.ReadSharedReq_avg_miss_latency::cpu.inst 143072.005384                       # average ReadSharedReq miss latency
system.l3.ReadSharedReq_avg_miss_latency::cpu.data 334428.260063                       # average ReadSharedReq miss latency
system.l3.ReadSharedReq_avg_miss_latency::total 322091.800434                       # average ReadSharedReq miss latency
system.l3.demand_avg_miss_latency::cpu.inst 143072.005384                       # average overall miss latency
system.l3.demand_avg_miss_latency::cpu.data 279187.158003                       # average overall miss latency
system.l3.demand_avg_miss_latency::total 273656.805381                       # average overall miss latency
system.l3.overall_avg_miss_latency::cpu.inst 143072.005384                       # average overall miss latency
system.l3.overall_avg_miss_latency::cpu.data 279187.158003                       # average overall miss latency
system.l3.overall_avg_miss_latency::total 273656.805381                       # average overall miss latency
system.l3.blocked_cycles::no_mshrs                  0                       # number of cycles access was blocked
system.l3.blocked_cycles::no_targets                0                       # number of cycles access was blocked
system.l3.blocked::no_mshrs                         0                       # number of cycles access was blocked
system.l3.blocked::no_targets                       0                       # number of cycles access was blocked
system.l3.avg_blocked_cycles::no_mshrs            nan                       # average number of cycles each access was blocked
system.l3.avg_blocked_cycles::no_targets          nan                       # average number of cycles each access was blocked
system.l3.writebacks::writebacks                12493                       # number of writebacks
system.l3.writebacks::total                     12493                       # number of writebacks
system.l3.CleanEvict_mshr_misses::writebacks            5                       # number of CleanEvict MSHR misses
system.l3.CleanEvict_mshr_misses::total             5                       # number of CleanEvict MSHR misses
system.l3.ReadExReq_mshr_misses::cpu.data         6762                       # number of ReadExReq MSHR misses
system.l3.ReadExReq_mshr_misses::total           6762                       # number of ReadExReq MSHR misses
system.l3.ReadSharedReq_mshr_misses::cpu.inst          743                       # number of ReadSharedReq MSHR misses
system.l3.ReadSharedReq_mshr_misses::cpu.data        10782                       # number of ReadSharedReq MSHR misses
system.l3.ReadSharedReq_mshr_misses::total        11525                       # number of ReadSharedReq MSHR misses
system.l3.demand_mshr_misses::cpu.inst            743                       # number of demand (read+write) MSHR misses
system.l3.demand_mshr_misses::cpu.data          17544                       # number of demand (read+write) MSHR misses
system.l3.demand_mshr_misses::total             18287                       # number of demand (read+write) MSHR misses
system.l3.overall_mshr_misses::cpu.inst           743                       # number of overall MSHR misses
system.l3.overall_mshr_misses::cpu.data         17544                       # number of overall MSHR misses
system.l3.overall_mshr_misses::total            18287                       # number of overall MSHR misses
system.l3.ReadExReq_mshr_miss_latency::cpu.data   1224634000                       # number of ReadExReq MSHR miss cycles
system.l3.ReadExReq_mshr_miss_latency::total   1224634000                       # number of ReadExReq MSHR miss cycles
system.l3.ReadSharedReq_mshr_miss_latency::cpu.inst     98872500                       # number of ReadSharedReq MSHR miss cycles
system.l3.ReadSharedReq_mshr_miss_latency::cpu.data   3497985500                       # number of ReadSharedReq MSHR miss cycles
system.l3.ReadSharedReq_mshr_miss_latency::total   3596858000                       # number of ReadSharedReq MSHR miss cycles
system.l3.demand_mshr_miss_latency::cpu.inst     98872500                       # number of demand (read+write) MSHR miss cycles
system.l3.demand_mshr_miss_latency::cpu.data   4722619500                       # number of demand (read+write) MSHR miss cycles
system.l3.demand_mshr_miss_latency::total   4821492000                       # number of demand (read+write) MSHR miss cycles
system.l3.overall_mshr_miss_latency::cpu.inst     98872500                       # number of overall MSHR miss cycles
system.l3.overall_mshr_miss_latency::cpu.data   4722619500                       # number of overall MSHR miss cycles
system.l3.overall_mshr_miss_latency::total   4821492000                       # number of overall MSHR miss cycles
system.l3.CleanEvict_mshr_miss_rate::writebacks          inf                       # mshr miss rate for CleanEvict accesses
system.l3.CleanEvict_mshr_miss_rate::total          inf                       # mshr miss rate for CleanEvict accesses
system.l3.ReadExReq_mshr_miss_rate::cpu.data     0.964484                       # mshr miss rate for ReadExReq accesses
system.l3.ReadExReq_mshr_miss_rate::total     0.964484                       # mshr miss rate for ReadExReq accesses
system.l3.ReadSharedReq_mshr_miss_rate::cpu.inst     0.961190                       # mshr miss rate for ReadSharedReq accesses
system.l3.ReadSharedReq_mshr_miss_rate::cpu.data     0.268423                       # mshr miss rate for ReadSharedReq accesses
system.l3.ReadSharedReq_mshr_miss_rate::total     0.281503                       # mshr miss rate for ReadSharedReq accesses
system.l3.demand_mshr_miss_rate::cpu.inst     0.961190                       # mshr miss rate for demand accesses
system.l3.demand_mshr_miss_rate::cpu.data     0.371860                       # mshr miss rate for demand accesses
system.l3.demand_mshr_miss_rate::total       0.381361                       # mshr miss rate for demand accesses
system.l3.overall_mshr_miss_rate::cpu.inst     0.961190                       # mshr miss rate for overall accesses
system.l3.overall_mshr_miss_rate::cpu.data     0.371860                       # mshr miss rate for overall accesses
system.l3.overall_mshr_miss_rate::total      0.381361                       # mshr miss rate for overall accesses
system.l3.ReadExReq_avg_mshr_miss_latency::cpu.data 181105.294292                       # average ReadExReq mshr miss latency
system.l3.ReadExReq_avg_mshr_miss_latency::total 181105.294292                       # average ReadExReq mshr miss latency
system.l3.ReadSharedReq_avg_mshr_miss_latency::cpu.inst 133072.005384                       # average ReadSharedReq mshr miss latency
system.l3.ReadSharedReq_avg_mshr_miss_latency::cpu.data 324428.260063                       # average ReadSharedReq mshr miss latency
system.l3.ReadSharedReq_avg_mshr_miss_latency::total 312091.800434                       # average ReadSharedReq mshr miss latency
system.l3.demand_avg_mshr_miss_latency::cpu.inst 133072.005384                       # average overall mshr miss latency
system.l3.demand_avg_mshr_miss_latency::cpu.data 269187.158003                       # average overall mshr miss latency
system.l3.demand_avg_mshr_miss_latency::total 263656.805381                       # average overall mshr miss latency
system.l3.overall_avg_mshr_miss_latency::cpu.inst 133072.005384                       # average overall mshr miss latency
system.l3.overall_avg_mshr_miss_latency::cpu.data 269187.158003                       # average overall mshr miss latency
system.l3.overall_avg_mshr_miss_latency::total 263656.805381                       # average overall mshr miss latency
system.l3.replacements                          14200                       # number of replacements
system.membus.snoop_filter.tot_requests         32350                       # Total number of requests made to the snoop filter.
system.membus.snoop_filter.hit_single_requests        14063                       # Number of requests hitting in the snoop filter with a single holder of the requested data.
system.membus.snoop_filter.hit_multi_requests            0                       # Number of requests hitting in the snoop filter with multiple (>1) holders of the requested data.
system.membus.snoop_filter.tot_snoops               0                       # Total number of snoops made to the snoop filter.
system.membus.snoop_filter.hit_single_snoops            0                       # Number of snoops hitting in the snoop filter with a single holder of the requested data.
system.membus.snoop_filter.hit_multi_snoops            0                       # Number of snoops hitting in the snoop filter with multiple (>1) holders of the requested data.
system.membus.pwrStateResidencyTicks::UNDEFINED  93169507000                       # Cumulative time (in ticks) in various power states
system.membus.trans_dist::ReadResp              11525                       # Transaction distribution
system.membus.trans_dist::WritebackDirty        12493                       # Transaction distribution
system.membus.trans_dist::CleanEvict             1570                       # Transaction distribution
system.membus.trans_dist::ReadExReq              6762                       # Transaction distribution
system.membus.trans_dist::ReadExResp             6762                       # Transaction distribution
system.membus.trans_dist::ReadSharedReq         11525                       # Transaction distribution
system.membus.pkt_count_system.l3.mem_side::system.mem_ctrls.port        50637                       # Packet count per connected master and slave (bytes)
system.membus.pkt_count_system.l3.mem_side::total        50637                       # Packet count per connected master and slave (bytes)
system.membus.pkt_count::total                  50637                       # Packet count per connected master and slave (bytes)
system.membus.pkt_size_system.l3.mem_side::system.mem_ctrls.port      1969920                       # Cumulative packet size per connected master and slave (bytes)
system.membus.pkt_size_system.l3.mem_side::total      1969920                       # Cumulative packet size per connected master and slave (bytes)
system.membus.pkt_size::total                 1969920                       # Cumulative packet size per connected master and slave (bytes)
system.membus.snoops                                0                       # Total snoops (count)
system.membus.snoopTraffic                          0                       # Total snoop traffic (bytes)
system.membus.snoop_fanout::samples             18287                       # Request fanout histogram
system.membus.snoop_fanout::mean                    0                       # Request fanout histogram
system.membus.snoop_fanout::stdev                   0                       # Request fanout histogram
system.membus.snoop_fanout::underflows              0      0.00%      0.00% # Request fanout histogram
system.membus.snoop_fanout::0                   18287    100.00%    100.00% # Request fanout histogram
system.membus.snoop_fanout::1                       0      0.00%    100.00% # Request fanout histogram
system.membus.snoop_fanout::overflows               0      0.00%    100.00% # Request fanout histogram
system.membus.snoop_fanout::min_value               0                       # Request fanout histogram
system.membus.snoop_fanout::max_value               0                       # Request fanout histogram
system.membus.snoop_fanout::total               18287                       # Request fanout histogram
system.membus.reqLayer2.occupancy            82358000                       # Layer occupancy (ticks)
system.membus.reqLayer2.utilization               0.1                       # Layer utilization (%)
system.membus.respLayer1.occupancy           91471500                       # Layer occupancy (ticks)
system.membus.respLayer1.utilization              0.1                       # Layer utilization (%)
system.tol2bus.snoop_filter.tot_requests       158782                       # Total number of requests made to the snoop filter.
system.tol2bus.snoop_filter.hit_single_requests        91309                       # Number of requests hitting in the snoop filter with a single holder of the requested data.
system.tol2bus.snoop_filter.hit_multi_requests            0                       # Number of requests hitting in the snoop filter with multiple (>1) holders of the requested data.
system.tol2bus.snoop_filter.tot_snoops            749                       # Total number of snoops made to the snoop filter.
system.tol2bus.snoop_filter.hit_single_snoops          749                       # Number of snoops hitting in the snoop filter with a single holder of the requested data.
system.tol2bus.snoop_filter.hit_multi_snoops            0                       # Number of snoops hitting in the snoop filter with multiple (>1) holders of the requested data.
system.tol2bus.pwrStateResidencyTicks::UNDEFINED  93169507000                       # Cumulative time (in ticks) in various power states
system.tol2bus.trans_dist::ReadResp             59392                       # Transaction distribution
system.tol2bus.trans_dist::WritebackDirty       117663                       # Transaction distribution
system.tol2bus.trans_dist::WritebackClean          820                       # Transaction distribution
system.tol2bus.trans_dist::CleanEvict           10843                       # Transaction distribution
system.tol2bus.trans_dist::UpgradeReq           24092                       # Transaction distribution
system.tol2bus.trans_dist::UpgradeResp          24092                       # Transaction distribution
system.tol2bus.trans_dist::ReadExReq             8081                       # Transaction distribution
system.tol2bus.trans_dist::ReadExResp            8081                       # Transaction distribution
system.tol2bus.trans_dist::ReadCleanReq           948                       # Transaction distribution
system.tol2bus.trans_dist::ReadSharedReq        58444                       # Transaction distribution
system.tol2bus.pkt_count_system.cpu.icache.mem_side::system.l2.cpu_side         2716                       # Packet count per connected master and slave (bytes)
system.tol2bus.pkt_count_system.cpu.dcache.mem_side::system.l2.cpu_side       247631                       # Packet count per connected master and slave (bytes)
system.tol2bus.pkt_count::total                250347                       # Packet count per connected master and slave (bytes)
system.tol2bus.pkt_size_system.cpu.icache.mem_side::system.l2.cpu_side       113152                       # Cumulative packet size per connected master and slave (bytes)
system.tol2bus.pkt_size_system.cpu.dcache.mem_side::system.l2.cpu_side      8089088                       # Cumulative packet size per connected master and slave (bytes)
system.tol2bus.pkt_size::total                8202240                       # Cumulative packet size per connected master and slave (bytes)
system.tol2bus.snoops                           62109                       # Total snoops (count)
system.tol2bus.snoopTraffic                   3698944                       # Total snoop traffic (bytes)
system.tol2bus.snoop_fanout::samples           153674                       # Request fanout histogram
system.tol2bus.snoop_fanout::mean            0.004874                       # Request fanout histogram
system.tol2bus.snoop_fanout::stdev           0.069644                       # Request fanout histogram
system.tol2bus.snoop_fanout::underflows             0      0.00%      0.00% # Request fanout histogram
system.tol2bus.snoop_fanout::0                 152925     99.51%     99.51% # Request fanout histogram
system.tol2bus.snoop_fanout::1                    749      0.49%    100.00% # Request fanout histogram
system.tol2bus.snoop_fanout::2                      0      0.00%    100.00% # Request fanout histogram
system.tol2bus.snoop_fanout::3                      0      0.00%    100.00% # Request fanout histogram
system.tol2bus.snoop_fanout::4                      0      0.00%    100.00% # Request fanout histogram
system.tol2bus.snoop_fanout::overflows              0      0.00%    100.00% # Request fanout histogram
system.tol2bus.snoop_fanout::min_value              0                       # Request fanout histogram
system.tol2bus.snoop_fanout::max_value              1                       # Request fanout histogram
system.tol2bus.snoop_fanout::total             153674                       # Request fanout histogram
system.tol2bus.reqLayer0.occupancy          140078000                       # Layer occupancy (ticks)
system.tol2bus.reqLayer0.utilization              0.2                       # Layer utilization (%)
system.tol2bus.respLayer0.occupancy           1422000                       # Layer occupancy (ticks)
system.tol2bus.respLayer0.utilization             0.0                       # Layer utilization (%)
system.tol2bus.respLayer1.occupancy         111833500                       # Layer occupancy (ticks)
system.tol2bus.respLayer1.utilization             0.1                       # Layer utilization (%)
system.tol3bus.pwrStateResidencyTicks::UNDEFINED  93169507000                       # Cumulative time (in ticks) in various power states
system.tol3bus.trans_dist::ReadResp             40941                       # Transaction distribution
system.tol3bus.trans_dist::WritebackDirty        57796                       # Transaction distribution
system.tol3bus.trans_dist::CleanEvict            3794                       # Transaction distribution
system.tol3bus.trans_dist::ReadExReq             7011                       # Transaction distribution
system.tol3bus.trans_dist::ReadExResp            7011                       # Transaction distribution
system.tol3bus.trans_dist::ReadSharedReq        40941                       # Transaction distribution
system.tol3bus.pkt_count_system.l2.mem_side::system.l3.cpu_side       143294                       # Packet count per connected master and slave (bytes)
system.tol3bus.pkt_size_system.l2.mem_side::system.l3.cpu_side      5968320                       # Cumulative packet size per connected master and slave (bytes)
system.tol3bus.snoops                           14200                       # Total snoops (count)
system.tol3bus.snoopTraffic                    799552                       # Total snoop traffic (bytes)
system.tol3bus.snoop_fanout::samples           109542                       # Request fanout histogram
system.tol3bus.snoop_fanout::mean            0.129631                       # Request fanout histogram
system.tol3bus.snoop_fanout::stdev           0.335898                       # Request fanout histogram
system.tol3bus.snoop_fanout::underflows             0      0.00%      0.00% # Request fanout histogram
system.tol3bus.snoop_fanout::0                  95342     87.04%     87.04% # Request fanout histogram
system.tol3bus.snoop_fanout::1                  14200     12.96%    100.00% # Request fanout histogram
system.tol3bus.snoop_fanout::overflows              0      0.00%    100.00% # Request fanout histogram
system.tol3bus.snoop_fanout::min_value              0                       # Request fanout histogram
system.tol3bus.snoop_fanout::max_value              1                       # Request fanout histogram
system.tol3bus.snoop_fanout::total             109542                       # Request fanout histogram
system.tol3bus.reqLayer0.occupancy           92974000                       # Layer occupancy (ticks)
system.tol3bus.reqLayer0.utilization              0.1                       # Layer utilization (%)
system.tol3bus.respLayer0.occupancy          71928000                       # Layer occupancy (ticks)
system.tol3bus.respLayer0.utilization             0.1                       # Layer utilization (%)

---------- End Simulation Statistics   ----------
